Program Version,EnergyPlus-Linux-OMP-64 8.0.0.008, YMD=2014.01.14 15:13
! This file shows details about the branches, nodes, and other
! elements of the flow connections.
! This file is intended for use in "debugging" potential problems
! that may also be detected by the program, but may be more easily
! identified by "eye".
! This file is also intended to support software which draws a
! schematic diagram of the HVAC system.
! ===============================================================
! #Nodes,<Number of Unique Nodes>
 #Nodes,305                 
! <Node>,<NodeNumber>,<Node Name>,<Node Fluid Type>,<# Times Node Referenced After Definition>
 Node,1,NODE 77,Air,4
 Node,2,NODE 157,Air,4
 Node,3,NODE 152,Air,4
 Node,4,NODE 102,Air,4
 Node,5,NODE 167,Air,4
 Node,6,NODE 122,Air,4
 Node,7,NODE 142,Air,4
 Node,8,NODE 87,Air,4
 Node,9,NODE 217,Air,4
 Node,10,NODE 97,Air,4
 Node,11,NODE 252,Air,4
 Node,12,NODE 162,Air,4
 Node,13,NODE 247,Air,4
 Node,14,NODE 222,Air,4
 Node,15,NODE 112,Air,4
 Node,16,NODE 127,Air,4
 Node,17,NODE 172,Air,4
 Node,18,NODE 192,Air,4
 Node,19,NODE 177,Air,4
 Node,20,NODE 107,Air,4
 Node,21,NODE 187,Air,4
 Node,22,NODE 132,Air,4
 Node,23,NODE 207,Air,4
 Node,24,NODE 82,Air,4
 Node,25,NODE 92,Air,4
 Node,26,NODE 67,Air,4
 Node,27,NODE 212,Air,4
 Node,28,NODE 257,Air,4
 Node,29,NODE 197,Air,4
 Node,30,NODE 237,Air,4
 Node,31,NODE 182,Air,4
 Node,32,NODE 137,Air,4
 Node,33,NODE 202,Air,4
 Node,34,NODE 147,Air,4
 Node,35,NODE 72,Air,4
 Node,36,NODE 45,Air,4
 Node,37,NODE 232,Air,4
 Node,38,NODE 227,Air,4
 Node,39,NODE 117,Air,4
 Node,40,NODE 242,Air,4
 Node,41,NODE 41,Air,3
 Node,42,NODE 48,Air,6
 Node,43,NODE 49,Air,6
 Node,44,NODE 50,Air,8
 Node,45,NODE 42,Air,9
 Node,46,NODE 51,Water,2
 Node,47,NODE 57,Water,1
 Node,48,NODE 53,Water,1
 Node,49,NODE 58,Water,1
 Node,50,NODE 59,Water,1
 Node,51,NODE 60,Water,1
 Node,52,NODE 61,Water,1
 Node,53,NODE 52,Water,4
 Node,54,NODE 54,Water,2
 Node,55,HOT WATER LOOP DEMAND INLET PIPE NODE,Water,1
 Node,56,NODE 56,Water,2
 Node,57,NODE 62,Water,1
 Node,58,NODE 65,Water,1
 Node,59,NODE 66,Water,1
 Node,60,NODE 70,Water,1
 Node,61,NODE 71,Water,1
 Node,62,NODE 75,Water,1
 Node,63,NODE 76,Water,1
 Node,64,NODE 80,Water,1
 Node,65,NODE 81,Water,1
 Node,66,NODE 85,Water,1
 Node,67,NODE 86,Water,1
 Node,68,NODE 90,Water,1
 Node,69,NODE 91,Water,1
 Node,70,NODE 95,Water,1
 Node,71,NODE 96,Water,1
 Node,72,NODE 100,Water,1
 Node,73,NODE 101,Water,1
 Node,74,NODE 105,Water,1
 Node,75,NODE 106,Water,1
 Node,76,NODE 110,Water,1
 Node,77,NODE 111,Water,1
 Node,78,NODE 115,Water,1
 Node,79,NODE 116,Water,1
 Node,80,NODE 120,Water,1
 Node,81,NODE 121,Water,1
 Node,82,NODE 125,Water,1
 Node,83,NODE 126,Water,1
 Node,84,NODE 130,Water,1
 Node,85,NODE 131,Water,1
 Node,86,NODE 135,Water,1
 Node,87,NODE 136,Water,1
 Node,88,NODE 140,Water,1
 Node,89,NODE 141,Water,1
 Node,90,NODE 145,Water,1
 Node,91,NODE 146,Water,1
 Node,92,NODE 150,Water,1
 Node,93,NODE 151,Water,1
 Node,94,NODE 155,Water,1
 Node,95,NODE 156,Water,1
 Node,96,NODE 160,Water,1
 Node,97,NODE 161,Water,1
 Node,98,NODE 165,Water,1
 Node,99,NODE 166,Water,1
 Node,100,NODE 170,Water,1
 Node,101,NODE 171,Water,1
 Node,102,NODE 175,Water,1
 Node,103,NODE 176,Water,1
 Node,104,NODE 180,Water,1
 Node,105,NODE 181,Water,1
 Node,106,NODE 185,Water,1
 Node,107,NODE 186,Water,1
 Node,108,NODE 190,Water,1
 Node,109,NODE 191,Water,1
 Node,110,NODE 195,Water,1
 Node,111,NODE 196,Water,1
 Node,112,NODE 200,Water,1
 Node,113,NODE 201,Water,1
 Node,114,NODE 205,Water,1
 Node,115,NODE 206,Water,1
 Node,116,NODE 210,Water,1
 Node,117,NODE 211,Water,1
 Node,118,NODE 215,Water,1
 Node,119,NODE 216,Water,1
 Node,120,NODE 220,Water,1
 Node,121,NODE 221,Water,1
 Node,122,NODE 225,Water,1
 Node,123,NODE 226,Water,1
 Node,124,NODE 230,Water,1
 Node,125,NODE 231,Water,1
 Node,126,NODE 235,Water,1
 Node,127,NODE 236,Water,1
 Node,128,NODE 240,Water,1
 Node,129,NODE 241,Water,1
 Node,130,NODE 245,Water,1
 Node,131,NODE 246,Water,1
 Node,132,NODE 250,Water,1
 Node,133,NODE 251,Water,1
 Node,134,NODE 255,Water,1
 Node,135,NODE 256,Water,1
 Node,136,NODE 260,Water,1
 Node,137,NODE 261,Water,1
 Node,138,HOT WATER LOOP DEMAND BYPASS PIPE INLET NODE,Water,1
 Node,139,HOT WATER LOOP DEMAND BYPASS PIPE OUTLET NODE,Water,1
 Node,140,HOT WATER LOOP DEMAND OUTLET PIPE NODE,Water,1
 Node,141,NODE 55,Water,2
 Node,142,NODE 46,Air,2
 Node,143,NODE 1,Air,0
 Node,144,NODE 78,Air,1
 Node,145,NODE 10,Air,0
 Node,146,NODE 158,Air,1
 Node,147,NODE 11,Air,0
 Node,148,NODE 153,Air,1
 Node,149,NODE 12,Air,0
 Node,150,NODE 103,Air,1
 Node,151,NODE 13,Air,0
 Node,152,NODE 168,Air,1
 Node,153,NODE 14,Air,0
 Node,154,NODE 123,Air,1
 Node,155,NODE 15,Air,0
 Node,156,NODE 143,Air,1
 Node,157,NODE 16,Air,0
 Node,158,NODE 88,Air,1
 Node,159,NODE 17,Air,0
 Node,160,NODE 218,Air,1
 Node,161,NODE 18,Air,0
 Node,162,NODE 98,Air,1
 Node,163,NODE 19,Air,0
 Node,164,NODE 253,Air,1
 Node,165,NODE 2,Air,0
 Node,166,NODE 163,Air,1
 Node,167,NODE 20,Air,0
 Node,168,NODE 248,Air,1
 Node,169,NODE 21,Air,0
 Node,170,NODE 223,Air,1
 Node,171,NODE 22,Air,0
 Node,172,NODE 113,Air,1
 Node,173,NODE 23,Air,0
 Node,174,NODE 128,Air,1
 Node,175,NODE 24,Air,0
 Node,176,NODE 173,Air,1
 Node,177,NODE 25,Air,0
 Node,178,NODE 193,Air,1
 Node,179,NODE 26,Air,0
 Node,180,NODE 178,Air,1
 Node,181,NODE 27,Air,0
 Node,182,NODE 108,Air,1
 Node,183,NODE 28,Air,0
 Node,184,NODE 188,Air,1
 Node,185,NODE 29,Air,0
 Node,186,NODE 133,Air,1
 Node,187,NODE 3,Air,0
 Node,188,NODE 208,Air,1
 Node,189,NODE 30,Air,0
 Node,190,NODE 83,Air,1
 Node,191,NODE 31,Air,0
 Node,192,NODE 93,Air,1
 Node,193,NODE 32,Air,0
 Node,194,NODE 68,Air,1
 Node,195,NODE 33,Air,0
 Node,196,NODE 213,Air,1
 Node,197,NODE 34,Air,0
 Node,198,NODE 258,Air,1
 Node,199,NODE 35,Air,0
 Node,200,NODE 198,Air,1
 Node,201,NODE 36,Air,0
 Node,202,NODE 238,Air,1
 Node,203,NODE 37,Air,0
 Node,204,NODE 183,Air,1
 Node,205,NODE 38,Air,0
 Node,206,NODE 138,Air,1
 Node,207,NODE 39,Air,0
 Node,208,NODE 203,Air,1
 Node,209,NODE 4,Air,0
 Node,210,NODE 148,Air,1
 Node,211,NODE 40,Air,0
 Node,212,NODE 73,Air,1
 Node,213,NODE 5,Air,0
 Node,214,NODE 63,Air,1
 Node,215,NODE 6,Air,0
 Node,216,NODE 233,Air,1
 Node,217,NODE 7,Air,0
 Node,218,NODE 228,Air,1
 Node,219,NODE 8,Air,0
 Node,220,NODE 118,Air,1
 Node,221,NODE 9,Air,0
 Node,222,NODE 243,Air,1
 Node,223,NODE 43,Air,2
 Node,224,NODE 44,Air,2
 Node,225,NODE 64,Air,1
 Node,226,NODE 69,Air,1
 Node,227,NODE 74,Air,1
 Node,228,NODE 79,Air,1
 Node,229,NODE 84,Air,1
 Node,230,NODE 89,Air,1
 Node,231,NODE 94,Air,1
 Node,232,NODE 99,Air,1
 Node,233,NODE 104,Air,1
 Node,234,NODE 109,Air,1
 Node,235,NODE 114,Air,1
 Node,236,NODE 119,Air,1
 Node,237,NODE 124,Air,1
 Node,238,NODE 129,Air,1
 Node,239,NODE 134,Air,1
 Node,240,NODE 139,Air,1
 Node,241,NODE 144,Air,1
 Node,242,NODE 149,Air,1
 Node,243,NODE 154,Air,1
 Node,244,NODE 159,Air,1
 Node,245,NODE 164,Air,1
 Node,246,NODE 169,Air,1
 Node,247,NODE 174,Air,1
 Node,248,NODE 179,Air,1
 Node,249,NODE 184,Air,1
 Node,250,NODE 189,Air,1
 Node,251,NODE 194,Air,1
 Node,252,NODE 199,Air,1
 Node,253,NODE 204,Air,1
 Node,254,NODE 209,Air,1
 Node,255,NODE 214,Air,1
 Node,256,NODE 219,Air,1
 Node,257,NODE 224,Air,1
 Node,258,NODE 229,Air,1
 Node,259,NODE 234,Air,1
 Node,260,NODE 239,Air,1
 Node,261,NODE 244,Air,1
 Node,262,NODE 249,Air,1
 Node,263,NODE 254,Air,1
 Node,264,NODE 259,Air,1
 Node,265,AIR TERMINAL SINGLE DUCT VAV REHEAT 2 DAMPER OUTLET,Air,1
 Node,266,AIR TERMINAL SINGLE DUCT VAV REHEAT 3 DAMPER OUTLET,Air,1
 Node,267,AIR TERMINAL SINGLE DUCT VAV REHEAT 4 DAMPER OUTLET,Air,1
 Node,268,AIR TERMINAL SINGLE DUCT VAV REHEAT 5 DAMPER OUTLET,Air,1
 Node,269,AIR TERMINAL SINGLE DUCT VAV REHEAT 6 DAMPER OUTLET,Air,1
 Node,270,AIR TERMINAL SINGLE DUCT VAV REHEAT 7 DAMPER OUTLET,Air,1
 Node,271,AIR TERMINAL SINGLE DUCT VAV REHEAT 8 DAMPER OUTLET,Air,1
 Node,272,AIR TERMINAL SINGLE DUCT VAV REHEAT 9 DAMPER OUTLET,Air,1
 Node,273,AIR TERMINAL SINGLE DUCT VAV REHEAT 10 DAMPER OUTLET,Air,1
 Node,274,AIR TERMINAL SINGLE DUCT VAV REHEAT 11 DAMPER OUTLET,Air,1
 Node,275,AIR TERMINAL SINGLE DUCT VAV REHEAT 12 DAMPER OUTLET,Air,1
 Node,276,AIR TERMINAL SINGLE DUCT VAV REHEAT 13 DAMPER OUTLET,Air,1
 Node,277,AIR TERMINAL SINGLE DUCT VAV REHEAT 14 DAMPER OUTLET,Air,1
 Node,278,AIR TERMINAL SINGLE DUCT VAV REHEAT 15 DAMPER OUTLET,Air,1
 Node,279,AIR TERMINAL SINGLE DUCT VAV REHEAT 16 DAMPER OUTLET,Air,1
 Node,280,AIR TERMINAL SINGLE DUCT VAV REHEAT 17 DAMPER OUTLET,Air,1
 Node,281,AIR TERMINAL SINGLE DUCT VAV REHEAT 18 DAMPER OUTLET,Air,1
 Node,282,AIR TERMINAL SINGLE DUCT VAV REHEAT 19 DAMPER OUTLET,Air,1
 Node,283,AIR TERMINAL SINGLE DUCT VAV REHEAT 20 DAMPER OUTLET,Air,1
 Node,284,AIR TERMINAL SINGLE DUCT VAV REHEAT 21 DAMPER OUTLET,Air,1
 Node,285,AIR TERMINAL SINGLE DUCT VAV REHEAT 22 DAMPER OUTLET,Air,1
 Node,286,AIR TERMINAL SINGLE DUCT VAV REHEAT 23 DAMPER OUTLET,Air,1
 Node,287,AIR TERMINAL SINGLE DUCT VAV REHEAT 24 DAMPER OUTLET,Air,1
 Node,288,AIR TERMINAL SINGLE DUCT VAV REHEAT 25 DAMPER OUTLET,Air,1
 Node,289,AIR TERMINAL SINGLE DUCT VAV REHEAT 26 DAMPER OUTLET,Air,1
 Node,290,AIR TERMINAL SINGLE DUCT VAV REHEAT 27 DAMPER OUTLET,Air,1
 Node,291,AIR TERMINAL SINGLE DUCT VAV REHEAT 28 DAMPER OUTLET,Air,1
 Node,292,AIR TERMINAL SINGLE DUCT VAV REHEAT 29 DAMPER OUTLET,Air,1
 Node,293,AIR TERMINAL SINGLE DUCT VAV REHEAT 30 DAMPER OUTLET,Air,1
 Node,294,AIR TERMINAL SINGLE DUCT VAV REHEAT 31 DAMPER OUTLET,Air,1
 Node,295,AIR TERMINAL SINGLE DUCT VAV REHEAT 32 DAMPER OUTLET,Air,1
 Node,296,AIR TERMINAL SINGLE DUCT VAV REHEAT 33 DAMPER OUTLET,Air,1
 Node,297,AIR TERMINAL SINGLE DUCT VAV REHEAT 34 DAMPER OUTLET,Air,1
 Node,298,AIR TERMINAL SINGLE DUCT VAV REHEAT 35 DAMPER OUTLET,Air,1
 Node,299,AIR TERMINAL SINGLE DUCT VAV REHEAT 36 DAMPER OUTLET,Air,1
 Node,300,AIR TERMINAL SINGLE DUCT VAV REHEAT 37 DAMPER OUTLET,Air,1
 Node,301,AIR TERMINAL SINGLE DUCT VAV REHEAT 38 DAMPER OUTLET,Air,1
 Node,302,AIR TERMINAL SINGLE DUCT VAV REHEAT 39 DAMPER OUTLET,Air,1
 Node,303,AIR TERMINAL SINGLE DUCT VAV REHEAT 40 DAMPER OUTLET,Air,1
 Node,304,AIR TERMINAL SINGLE DUCT VAV REHEAT 41 DAMPER OUTLET,Air,1
 Node,305,NODE 47,Air,1
! ===============================================================
! Suspicious nodes have 0 references.  It is normal for some nodes, however.
! Listing nodes with 0 references (culled from previous list):
! <Suspicious Node>,<NodeNumber>,<Node Name>,<Node Fluid Type>,<# Times Node Referenced After Definition>
 Suspicious Node,143,NODE 1,Air,0
 Suspicious Node,145,NODE 10,Air,0
 Suspicious Node,147,NODE 11,Air,0
 Suspicious Node,149,NODE 12,Air,0
 Suspicious Node,151,NODE 13,Air,0
 Suspicious Node,153,NODE 14,Air,0
 Suspicious Node,155,NODE 15,Air,0
 Suspicious Node,157,NODE 16,Air,0
 Suspicious Node,159,NODE 17,Air,0
 Suspicious Node,161,NODE 18,Air,0
 Suspicious Node,163,NODE 19,Air,0
 Suspicious Node,165,NODE 2,Air,0
 Suspicious Node,167,NODE 20,Air,0
 Suspicious Node,169,NODE 21,Air,0
 Suspicious Node,171,NODE 22,Air,0
 Suspicious Node,173,NODE 23,Air,0
 Suspicious Node,175,NODE 24,Air,0
 Suspicious Node,177,NODE 25,Air,0
 Suspicious Node,179,NODE 26,Air,0
 Suspicious Node,181,NODE 27,Air,0
 Suspicious Node,183,NODE 28,Air,0
 Suspicious Node,185,NODE 29,Air,0
 Suspicious Node,187,NODE 3,Air,0
 Suspicious Node,189,NODE 30,Air,0
 Suspicious Node,191,NODE 31,Air,0
 Suspicious Node,193,NODE 32,Air,0
 Suspicious Node,195,NODE 33,Air,0
 Suspicious Node,197,NODE 34,Air,0
 Suspicious Node,199,NODE 35,Air,0
 Suspicious Node,201,NODE 36,Air,0
 Suspicious Node,203,NODE 37,Air,0
 Suspicious Node,205,NODE 38,Air,0
 Suspicious Node,207,NODE 39,Air,0
 Suspicious Node,209,NODE 4,Air,0
 Suspicious Node,211,NODE 40,Air,0
 Suspicious Node,213,NODE 5,Air,0
 Suspicious Node,215,NODE 6,Air,0
 Suspicious Node,217,NODE 7,Air,0
 Suspicious Node,219,NODE 8,Air,0
 Suspicious Node,221,NODE 9,Air,0
! ===============================================================
! <#Branch Lists>,<Number of Branch Lists>
 #Branch Lists,3
! <Branch List>,<Branch List Count>,<Branch List Name>,<Loop Name>,<Loop Type>,<Number of Branches>
! <Branch>,<Branch Count>,<Branch Name>,<Loop Name>,<Loop Type>,<Branch Inlet Node Name>,<Branch Outlet Node Name>
 Branch List,1,BRANCHLIST {B490044A-ED52-4744-A06D-C1167CC54F8D},PACKAGED ROOFTOP VAV WITH REHEAT,Air,1
   Branch,1,BRANCH {6072E8E7-057E-4978-9874-7612F3347A50},PACKAGED ROOFTOP VAV WITH REHEAT,Air,NODE 41,NODE 42
 Branch List,2,HOT WATER LOOP SUPPLY BRANCHES,HOT WATER LOOP,Plant Supply,4
   Branch,1,HOT WATER LOOP SUPPLY INLET BRANCH,HOT WATER LOOP,Plant Supply,NODE 51,NODE 57
   Branch,2,HOT WATER LOOP SUPPLY BRANCH 1,HOT WATER LOOP,Plant Supply,NODE 53,NODE 58
   Branch,3,HOT WATER LOOP SUPPLY BRANCH 2,HOT WATER LOOP,Plant Supply,NODE 59,NODE 60
   Branch,4,HOT WATER LOOP SUPPLY OUTLET BRANCH,HOT WATER LOOP,Plant Supply,NODE 61,NODE 52
 Branch List,3,HOT WATER LOOP DEMAND BRANCHES,HOT WATER LOOP,Plant Demand,44
   Branch,1,HOT WATER LOOP DEMAND INLET BRANCH,HOT WATER LOOP,Plant Demand,NODE 54,HOT WATER LOOP DEMAND INLET PIPE NODE
   Branch,2,HOT WATER LOOP DEMAND BRANCH 1,HOT WATER LOOP,Plant Demand,NODE 56,NODE 62
   Branch,3,HOT WATER LOOP DEMAND BRANCH 2,HOT WATER LOOP,Plant Demand,NODE 65,NODE 66
   Branch,4,HOT WATER LOOP DEMAND BRANCH 3,HOT WATER LOOP,Plant Demand,NODE 70,NODE 71
   Branch,5,HOT WATER LOOP DEMAND BRANCH 4,HOT WATER LOOP,Plant Demand,NODE 75,NODE 76
   Branch,6,HOT WATER LOOP DEMAND BRANCH 5,HOT WATER LOOP,Plant Demand,NODE 80,NODE 81
   Branch,7,HOT WATER LOOP DEMAND BRANCH 6,HOT WATER LOOP,Plant Demand,NODE 85,NODE 86
   Branch,8,HOT WATER LOOP DEMAND BRANCH 7,HOT WATER LOOP,Plant Demand,NODE 90,NODE 91
   Branch,9,HOT WATER LOOP DEMAND BRANCH 8,HOT WATER LOOP,Plant Demand,NODE 95,NODE 96
   Branch,10,HOT WATER LOOP DEMAND BRANCH 9,HOT WATER LOOP,Plant Demand,NODE 100,NODE 101
   Branch,11,HOT WATER LOOP DEMAND BRANCH 10,HOT WATER LOOP,Plant Demand,NODE 105,NODE 106
   Branch,12,HOT WATER LOOP DEMAND BRANCH 11,HOT WATER LOOP,Plant Demand,NODE 110,NODE 111
   Branch,13,HOT WATER LOOP DEMAND BRANCH 12,HOT WATER LOOP,Plant Demand,NODE 115,NODE 116
   Branch,14,HOT WATER LOOP DEMAND BRANCH 13,HOT WATER LOOP,Plant Demand,NODE 120,NODE 121
   Branch,15,HOT WATER LOOP DEMAND BRANCH 14,HOT WATER LOOP,Plant Demand,NODE 125,NODE 126
   Branch,16,HOT WATER LOOP DEMAND BRANCH 15,HOT WATER LOOP,Plant Demand,NODE 130,NODE 131
   Branch,17,HOT WATER LOOP DEMAND BRANCH 16,HOT WATER LOOP,Plant Demand,NODE 135,NODE 136
   Branch,18,HOT WATER LOOP DEMAND BRANCH 17,HOT WATER LOOP,Plant Demand,NODE 140,NODE 141
   Branch,19,HOT WATER LOOP DEMAND BRANCH 18,HOT WATER LOOP,Plant Demand,NODE 145,NODE 146
   Branch,20,HOT WATER LOOP DEMAND BRANCH 19,HOT WATER LOOP,Plant Demand,NODE 150,NODE 151
   Branch,21,HOT WATER LOOP DEMAND BRANCH 20,HOT WATER LOOP,Plant Demand,NODE 155,NODE 156
   Branch,22,HOT WATER LOOP DEMAND BRANCH 21,HOT WATER LOOP,Plant Demand,NODE 160,NODE 161
   Branch,23,HOT WATER LOOP DEMAND BRANCH 22,HOT WATER LOOP,Plant Demand,NODE 165,NODE 166
   Branch,24,HOT WATER LOOP DEMAND BRANCH 23,HOT WATER LOOP,Plant Demand,NODE 170,NODE 171
   Branch,25,HOT WATER LOOP DEMAND BRANCH 24,HOT WATER LOOP,Plant Demand,NODE 175,NODE 176
   Branch,26,HOT WATER LOOP DEMAND BRANCH 25,HOT WATER LOOP,Plant Demand,NODE 180,NODE 181
   Branch,27,HOT WATER LOOP DEMAND BRANCH 26,HOT WATER LOOP,Plant Demand,NODE 185,NODE 186
   Branch,28,HOT WATER LOOP DEMAND BRANCH 27,HOT WATER LOOP,Plant Demand,NODE 190,NODE 191
   Branch,29,HOT WATER LOOP DEMAND BRANCH 28,HOT WATER LOOP,Plant Demand,NODE 195,NODE 196
   Branch,30,HOT WATER LOOP DEMAND BRANCH 29,HOT WATER LOOP,Plant Demand,NODE 200,NODE 201
   Branch,31,HOT WATER LOOP DEMAND BRANCH 30,HOT WATER LOOP,Plant Demand,NODE 205,NODE 206
   Branch,32,HOT WATER LOOP DEMAND BRANCH 31,HOT WATER LOOP,Plant Demand,NODE 210,NODE 211
   Branch,33,HOT WATER LOOP DEMAND BRANCH 32,HOT WATER LOOP,Plant Demand,NODE 215,NODE 216
   Branch,34,HOT WATER LOOP DEMAND BRANCH 33,HOT WATER LOOP,Plant Demand,NODE 220,NODE 221
   Branch,35,HOT WATER LOOP DEMAND BRANCH 34,HOT WATER LOOP,Plant Demand,NODE 225,NODE 226
   Branch,36,HOT WATER LOOP DEMAND BRANCH 35,HOT WATER LOOP,Plant Demand,NODE 230,NODE 231
   Branch,37,HOT WATER LOOP DEMAND BRANCH 36,HOT WATER LOOP,Plant Demand,NODE 235,NODE 236
   Branch,38,HOT WATER LOOP DEMAND BRANCH 37,HOT WATER LOOP,Plant Demand,NODE 240,NODE 241
   Branch,39,HOT WATER LOOP DEMAND BRANCH 38,HOT WATER LOOP,Plant Demand,NODE 245,NODE 246
   Branch,40,HOT WATER LOOP DEMAND BRANCH 39,HOT WATER LOOP,Plant Demand,NODE 250,NODE 251
   Branch,41,HOT WATER LOOP DEMAND BRANCH 40,HOT WATER LOOP,Plant Demand,NODE 255,NODE 256
   Branch,42,HOT WATER LOOP DEMAND BRANCH 41,HOT WATER LOOP,Plant Demand,NODE 260,NODE 261
   Branch,43,HOT WATER LOOP DEMAND BYPASS BRANCH,HOT WATER LOOP,Plant Demand,HOT WATER LOOP DEMAND BYPASS PIPE INLET NODE,HOT WATER LOOP DEMAND BYPASS PIPE OUTLET NODE
   Branch,44,HOT WATER LOOP DEMAND OUTLET BRANCH,HOT WATER LOOP,Plant Demand,HOT WATER LOOP DEMAND OUTLET PIPE NODE,NODE 55
! ===============================================================
! <#Supply Air Paths>,<Number of Supply Air Paths>
 #Supply Air Paths,1
! <Supply Air Path>,<Supply Air Path Count>,<Supply Air Path Name>,<AirLoopHVAC Name>
! <#Components on Supply Air Path>,<Number of Components>
! <Supply Air Path Component>,<Component Count>,<Component Type>,<Component Name>,<AirLoopHVAC Name>
! <#Outlet Nodes on Supply Air Path Component>,<Number of Nodes>
! <Supply Air Path Component Nodes>,<Node Count>,<Component Type>,<Component Name>,<Inlet Node Name>,<Outlet Node Name>,<AirLoopHVAC Name>
 Supply Air Path,1,AIRLOOPHVAC:SUPPLYPATH {6815B5E0-545B-4B60-B65B-7D301098F2DA},PACKAGED ROOFTOP VAV WITH REHEAT
   #Components on Supply Air Path,1
   Supply Air Path Component,1,AIRLOOPHVAC:ZONESPLITTER,AIR LOOP HVAC ZONE SPLITTER 1,PACKAGED ROOFTOP VAV WITH REHEAT
     #Outlet Nodes on Supply Air Path Component,40
     Supply Air Path Component Nodes,1,AIRLOOPHVAC:ZONESPLITTER,AIR LOOP HVAC ZONE SPLITTER 1,NODE 43,NODE 64,PACKAGED ROOFTOP VAV WITH REHEAT
     Supply Air Path Component Nodes,2,AIRLOOPHVAC:ZONESPLITTER,AIR LOOP HVAC ZONE SPLITTER 1,NODE 43,NODE 69,PACKAGED ROOFTOP VAV WITH REHEAT
     Supply Air Path Component Nodes,3,AIRLOOPHVAC:ZONESPLITTER,AIR LOOP HVAC ZONE SPLITTER 1,NODE 43,NODE 74,PACKAGED ROOFTOP VAV WITH REHEAT
     Supply Air Path Component Nodes,4,AIRLOOPHVAC:ZONESPLITTER,AIR LOOP HVAC ZONE SPLITTER 1,NODE 43,NODE 79,PACKAGED ROOFTOP VAV WITH REHEAT
     Supply Air Path Component Nodes,5,AIRLOOPHVAC:ZONESPLITTER,AIR LOOP HVAC ZONE SPLITTER 1,NODE 43,NODE 84,PACKAGED ROOFTOP VAV WITH REHEAT
     Supply Air Path Component Nodes,6,AIRLOOPHVAC:ZONESPLITTER,AIR LOOP HVAC ZONE SPLITTER 1,NODE 43,NODE 89,PACKAGED ROOFTOP VAV WITH REHEAT
     Supply Air Path Component Nodes,7,AIRLOOPHVAC:ZONESPLITTER,AIR LOOP HVAC ZONE SPLITTER 1,NODE 43,NODE 94,PACKAGED ROOFTOP VAV WITH REHEAT
     Supply Air Path Component Nodes,8,AIRLOOPHVAC:ZONESPLITTER,AIR LOOP HVAC ZONE SPLITTER 1,NODE 43,NODE 99,PACKAGED ROOFTOP VAV WITH REHEAT
     Supply Air Path Component Nodes,9,AIRLOOPHVAC:ZONESPLITTER,AIR LOOP HVAC ZONE SPLITTER 1,NODE 43,NODE 104,PACKAGED ROOFTOP VAV WITH REHEAT
     Supply Air Path Component Nodes,10,AIRLOOPHVAC:ZONESPLITTER,AIR LOOP HVAC ZONE SPLITTER 1,NODE 43,NODE 109,PACKAGED ROOFTOP VAV WITH REHEAT
     Supply Air Path Component Nodes,11,AIRLOOPHVAC:ZONESPLITTER,AIR LOOP HVAC ZONE SPLITTER 1,NODE 43,NODE 114,PACKAGED ROOFTOP VAV WITH REHEAT
     Supply Air Path Component Nodes,12,AIRLOOPHVAC:ZONESPLITTER,AIR LOOP HVAC ZONE SPLITTER 1,NODE 43,NODE 119,PACKAGED ROOFTOP VAV WITH REHEAT
     Supply Air Path Component Nodes,13,AIRLOOPHVAC:ZONESPLITTER,AIR LOOP HVAC ZONE SPLITTER 1,NODE 43,NODE 124,PACKAGED ROOFTOP VAV WITH REHEAT
     Supply Air Path Component Nodes,14,AIRLOOPHVAC:ZONESPLITTER,AIR LOOP HVAC ZONE SPLITTER 1,NODE 43,NODE 129,PACKAGED ROOFTOP VAV WITH REHEAT
     Supply Air Path Component Nodes,15,AIRLOOPHVAC:ZONESPLITTER,AIR LOOP HVAC ZONE SPLITTER 1,NODE 43,NODE 134,PACKAGED ROOFTOP VAV WITH REHEAT
     Supply Air Path Component Nodes,16,AIRLOOPHVAC:ZONESPLITTER,AIR LOOP HVAC ZONE SPLITTER 1,NODE 43,NODE 139,PACKAGED ROOFTOP VAV WITH REHEAT
     Supply Air Path Component Nodes,17,AIRLOOPHVAC:ZONESPLITTER,AIR LOOP HVAC ZONE SPLITTER 1,NODE 43,NODE 144,PACKAGED ROOFTOP VAV WITH REHEAT
     Supply Air Path Component Nodes,18,AIRLOOPHVAC:ZONESPLITTER,AIR LOOP HVAC ZONE SPLITTER 1,NODE 43,NODE 149,PACKAGED ROOFTOP VAV WITH REHEAT
     Supply Air Path Component Nodes,19,AIRLOOPHVAC:ZONESPLITTER,AIR LOOP HVAC ZONE SPLITTER 1,NODE 43,NODE 154,PACKAGED ROOFTOP VAV WITH REHEAT
     Supply Air Path Component Nodes,20,AIRLOOPHVAC:ZONESPLITTER,AIR LOOP HVAC ZONE SPLITTER 1,NODE 43,NODE 159,PACKAGED ROOFTOP VAV WITH REHEAT
     Supply Air Path Component Nodes,21,AIRLOOPHVAC:ZONESPLITTER,AIR LOOP HVAC ZONE SPLITTER 1,NODE 43,NODE 164,PACKAGED ROOFTOP VAV WITH REHEAT
     Supply Air Path Component Nodes,22,AIRLOOPHVAC:ZONESPLITTER,AIR LOOP HVAC ZONE SPLITTER 1,NODE 43,NODE 169,PACKAGED ROOFTOP VAV WITH REHEAT
     Supply Air Path Component Nodes,23,AIRLOOPHVAC:ZONESPLITTER,AIR LOOP HVAC ZONE SPLITTER 1,NODE 43,NODE 174,PACKAGED ROOFTOP VAV WITH REHEAT
     Supply Air Path Component Nodes,24,AIRLOOPHVAC:ZONESPLITTER,AIR LOOP HVAC ZONE SPLITTER 1,NODE 43,NODE 179,PACKAGED ROOFTOP VAV WITH REHEAT
     Supply Air Path Component Nodes,25,AIRLOOPHVAC:ZONESPLITTER,AIR LOOP HVAC ZONE SPLITTER 1,NODE 43,NODE 184,PACKAGED ROOFTOP VAV WITH REHEAT
     Supply Air Path Component Nodes,26,AIRLOOPHVAC:ZONESPLITTER,AIR LOOP HVAC ZONE SPLITTER 1,NODE 43,NODE 189,PACKAGED ROOFTOP VAV WITH REHEAT
     Supply Air Path Component Nodes,27,AIRLOOPHVAC:ZONESPLITTER,AIR LOOP HVAC ZONE SPLITTER 1,NODE 43,NODE 194,PACKAGED ROOFTOP VAV WITH REHEAT
     Supply Air Path Component Nodes,28,AIRLOOPHVAC:ZONESPLITTER,AIR LOOP HVAC ZONE SPLITTER 1,NODE 43,NODE 199,PACKAGED ROOFTOP VAV WITH REHEAT
     Supply Air Path Component Nodes,29,AIRLOOPHVAC:ZONESPLITTER,AIR LOOP HVAC ZONE SPLITTER 1,NODE 43,NODE 204,PACKAGED ROOFTOP VAV WITH REHEAT
     Supply Air Path Component Nodes,30,AIRLOOPHVAC:ZONESPLITTER,AIR LOOP HVAC ZONE SPLITTER 1,NODE 43,NODE 209,PACKAGED ROOFTOP VAV WITH REHEAT
     Supply Air Path Component Nodes,31,AIRLOOPHVAC:ZONESPLITTER,AIR LOOP HVAC ZONE SPLITTER 1,NODE 43,NODE 214,PACKAGED ROOFTOP VAV WITH REHEAT
     Supply Air Path Component Nodes,32,AIRLOOPHVAC:ZONESPLITTER,AIR LOOP HVAC ZONE SPLITTER 1,NODE 43,NODE 219,PACKAGED ROOFTOP VAV WITH REHEAT
     Supply Air Path Component Nodes,33,AIRLOOPHVAC:ZONESPLITTER,AIR LOOP HVAC ZONE SPLITTER 1,NODE 43,NODE 224,PACKAGED ROOFTOP VAV WITH REHEAT
     Supply Air Path Component Nodes,34,AIRLOOPHVAC:ZONESPLITTER,AIR LOOP HVAC ZONE SPLITTER 1,NODE 43,NODE 229,PACKAGED ROOFTOP VAV WITH REHEAT
     Supply Air Path Component Nodes,35,AIRLOOPHVAC:ZONESPLITTER,AIR LOOP HVAC ZONE SPLITTER 1,NODE 43,NODE 234,PACKAGED ROOFTOP VAV WITH REHEAT
     Supply Air Path Component Nodes,36,AIRLOOPHVAC:ZONESPLITTER,AIR LOOP HVAC ZONE SPLITTER 1,NODE 43,NODE 239,PACKAGED ROOFTOP VAV WITH REHEAT
     Supply Air Path Component Nodes,37,AIRLOOPHVAC:ZONESPLITTER,AIR LOOP HVAC ZONE SPLITTER 1,NODE 43,NODE 244,PACKAGED ROOFTOP VAV WITH REHEAT
     Supply Air Path Component Nodes,38,AIRLOOPHVAC:ZONESPLITTER,AIR LOOP HVAC ZONE SPLITTER 1,NODE 43,NODE 249,PACKAGED ROOFTOP VAV WITH REHEAT
     Supply Air Path Component Nodes,39,AIRLOOPHVAC:ZONESPLITTER,AIR LOOP HVAC ZONE SPLITTER 1,NODE 43,NODE 254,PACKAGED ROOFTOP VAV WITH REHEAT
     Supply Air Path Component Nodes,40,AIRLOOPHVAC:ZONESPLITTER,AIR LOOP HVAC ZONE SPLITTER 1,NODE 43,NODE 259,PACKAGED ROOFTOP VAV WITH REHEAT
! <#Nodes on Supply Air Path>,<Number of Nodes>
! <Supply Air Path Node>,<Node Type>,<Node Count>,<Node Name>,<AirLoopHVAC Name>
#Nodes on Supply Air Path,41
   Supply Air Path Node,Inlet Node,1,NODE 43,PACKAGED ROOFTOP VAV WITH REHEAT
   Supply Air Path Node,Outlet Node,2,NODE 64,PACKAGED ROOFTOP VAV WITH REHEAT
   Supply Air Path Node,Outlet Node,3,NODE 69,PACKAGED ROOFTOP VAV WITH REHEAT
   Supply Air Path Node,Outlet Node,4,NODE 74,PACKAGED ROOFTOP VAV WITH REHEAT
   Supply Air Path Node,Outlet Node,5,NODE 79,PACKAGED ROOFTOP VAV WITH REHEAT
   Supply Air Path Node,Outlet Node,6,NODE 84,PACKAGED ROOFTOP VAV WITH REHEAT
   Supply Air Path Node,Outlet Node,7,NODE 89,PACKAGED ROOFTOP VAV WITH REHEAT
   Supply Air Path Node,Outlet Node,8,NODE 94,PACKAGED ROOFTOP VAV WITH REHEAT
   Supply Air Path Node,Outlet Node,9,NODE 99,PACKAGED ROOFTOP VAV WITH REHEAT
   Supply Air Path Node,Outlet Node,10,NODE 104,PACKAGED ROOFTOP VAV WITH REHEAT
   Supply Air Path Node,Outlet Node,11,NODE 109,PACKAGED ROOFTOP VAV WITH REHEAT
   Supply Air Path Node,Outlet Node,12,NODE 114,PACKAGED ROOFTOP VAV WITH REHEAT
   Supply Air Path Node,Outlet Node,13,NODE 119,PACKAGED ROOFTOP VAV WITH REHEAT
   Supply Air Path Node,Outlet Node,14,NODE 124,PACKAGED ROOFTOP VAV WITH REHEAT
   Supply Air Path Node,Outlet Node,15,NODE 129,PACKAGED ROOFTOP VAV WITH REHEAT
   Supply Air Path Node,Outlet Node,16,NODE 134,PACKAGED ROOFTOP VAV WITH REHEAT
   Supply Air Path Node,Outlet Node,17,NODE 139,PACKAGED ROOFTOP VAV WITH REHEAT
   Supply Air Path Node,Outlet Node,18,NODE 144,PACKAGED ROOFTOP VAV WITH REHEAT
   Supply Air Path Node,Outlet Node,19,NODE 149,PACKAGED ROOFTOP VAV WITH REHEAT
   Supply Air Path Node,Outlet Node,20,NODE 154,PACKAGED ROOFTOP VAV WITH REHEAT
   Supply Air Path Node,Outlet Node,21,NODE 159,PACKAGED ROOFTOP VAV WITH REHEAT
   Supply Air Path Node,Outlet Node,22,NODE 164,PACKAGED ROOFTOP VAV WITH REHEAT
   Supply Air Path Node,Outlet Node,23,NODE 169,PACKAGED ROOFTOP VAV WITH REHEAT
   Supply Air Path Node,Outlet Node,24,NODE 174,PACKAGED ROOFTOP VAV WITH REHEAT
   Supply Air Path Node,Outlet Node,25,NODE 179,PACKAGED ROOFTOP VAV WITH REHEAT
   Supply Air Path Node,Outlet Node,26,NODE 184,PACKAGED ROOFTOP VAV WITH REHEAT
   Supply Air Path Node,Outlet Node,27,NODE 189,PACKAGED ROOFTOP VAV WITH REHEAT
   Supply Air Path Node,Outlet Node,28,NODE 194,PACKAGED ROOFTOP VAV WITH REHEAT
   Supply Air Path Node,Outlet Node,29,NODE 199,PACKAGED ROOFTOP VAV WITH REHEAT
   Supply Air Path Node,Outlet Node,30,NODE 204,PACKAGED ROOFTOP VAV WITH REHEAT
   Supply Air Path Node,Outlet Node,31,NODE 209,PACKAGED ROOFTOP VAV WITH REHEAT
   Supply Air Path Node,Outlet Node,32,NODE 214,PACKAGED ROOFTOP VAV WITH REHEAT
   Supply Air Path Node,Outlet Node,33,NODE 219,PACKAGED ROOFTOP VAV WITH REHEAT
   Supply Air Path Node,Outlet Node,34,NODE 224,PACKAGED ROOFTOP VAV WITH REHEAT
   Supply Air Path Node,Outlet Node,35,NODE 229,PACKAGED ROOFTOP VAV WITH REHEAT
   Supply Air Path Node,Outlet Node,36,NODE 234,PACKAGED ROOFTOP VAV WITH REHEAT
   Supply Air Path Node,Outlet Node,37,NODE 239,PACKAGED ROOFTOP VAV WITH REHEAT
   Supply Air Path Node,Outlet Node,38,NODE 244,PACKAGED ROOFTOP VAV WITH REHEAT
   Supply Air Path Node,Outlet Node,39,NODE 249,PACKAGED ROOFTOP VAV WITH REHEAT
   Supply Air Path Node,Outlet Node,40,NODE 254,PACKAGED ROOFTOP VAV WITH REHEAT
   Supply Air Path Node,Outlet Node,41,NODE 259,PACKAGED ROOFTOP VAV WITH REHEAT
! ===============================================================
! <#Return Air Paths>,<Number of Return Air Paths>
 #Return Air Paths,1
! <Return Air Path>,<Return Air Path Count>,<Return Air Path Name>,<AirLoopHVAC Name>
! <#Components on Return Air Path>,<Number of Components>
! <Return Air Path Component>,<Component Count>,<Component Type>,<Component Name>,<AirLoopHVAC Name>
! <#Inlet Nodes on Return Air Path Component>,<Number of Nodes>
! <Return Air Path Component Nodes>,<Node Count>,<Component Type>,<Component Name>,<Inlet Node Name>,<Outlet Node Name>,<AirLoopHVAC Name>
 Return Air Path,1,AIRLOOPHVAC:RETURNPATH {7F3CEAFB-D3D5-43EF-BE66-5E7DBA2D8163},PACKAGED ROOFTOP VAV WITH REHEAT
   #Components on Return Air Path,1
   Return Air Path Component,1,AIRLOOPHVAC:ZONEMIXER,AIR LOOP HVAC ZONE MIXER 1,PACKAGED ROOFTOP VAV WITH REHEAT
     #Inlet Nodes on Return Air Path Component,40
     Return Air Path Component Nodes,1,AIRLOOPHVAC:ZONEMIXER,AIR LOOP HVAC ZONE MIXER 1,NODE 63,NODE 44,PACKAGED ROOFTOP VAV WITH REHEAT
     Return Air Path Component Nodes,2,AIRLOOPHVAC:ZONEMIXER,AIR LOOP HVAC ZONE MIXER 1,NODE 68,NODE 44,PACKAGED ROOFTOP VAV WITH REHEAT
     Return Air Path Component Nodes,3,AIRLOOPHVAC:ZONEMIXER,AIR LOOP HVAC ZONE MIXER 1,NODE 73,NODE 44,PACKAGED ROOFTOP VAV WITH REHEAT
     Return Air Path Component Nodes,4,AIRLOOPHVAC:ZONEMIXER,AIR LOOP HVAC ZONE MIXER 1,NODE 78,NODE 44,PACKAGED ROOFTOP VAV WITH REHEAT
     Return Air Path Component Nodes,5,AIRLOOPHVAC:ZONEMIXER,AIR LOOP HVAC ZONE MIXER 1,NODE 83,NODE 44,PACKAGED ROOFTOP VAV WITH REHEAT
     Return Air Path Component Nodes,6,AIRLOOPHVAC:ZONEMIXER,AIR LOOP HVAC ZONE MIXER 1,NODE 88,NODE 44,PACKAGED ROOFTOP VAV WITH REHEAT
     Return Air Path Component Nodes,7,AIRLOOPHVAC:ZONEMIXER,AIR LOOP HVAC ZONE MIXER 1,NODE 93,NODE 44,PACKAGED ROOFTOP VAV WITH REHEAT
     Return Air Path Component Nodes,8,AIRLOOPHVAC:ZONEMIXER,AIR LOOP HVAC ZONE MIXER 1,NODE 98,NODE 44,PACKAGED ROOFTOP VAV WITH REHEAT
     Return Air Path Component Nodes,9,AIRLOOPHVAC:ZONEMIXER,AIR LOOP HVAC ZONE MIXER 1,NODE 103,NODE 44,PACKAGED ROOFTOP VAV WITH REHEAT
     Return Air Path Component Nodes,10,AIRLOOPHVAC:ZONEMIXER,AIR LOOP HVAC ZONE MIXER 1,NODE 108,NODE 44,PACKAGED ROOFTOP VAV WITH REHEAT
     Return Air Path Component Nodes,11,AIRLOOPHVAC:ZONEMIXER,AIR LOOP HVAC ZONE MIXER 1,NODE 113,NODE 44,PACKAGED ROOFTOP VAV WITH REHEAT
     Return Air Path Component Nodes,12,AIRLOOPHVAC:ZONEMIXER,AIR LOOP HVAC ZONE MIXER 1,NODE 118,NODE 44,PACKAGED ROOFTOP VAV WITH REHEAT
     Return Air Path Component Nodes,13,AIRLOOPHVAC:ZONEMIXER,AIR LOOP HVAC ZONE MIXER 1,NODE 123,NODE 44,PACKAGED ROOFTOP VAV WITH REHEAT
     Return Air Path Component Nodes,14,AIRLOOPHVAC:ZONEMIXER,AIR LOOP HVAC ZONE MIXER 1,NODE 128,NODE 44,PACKAGED ROOFTOP VAV WITH REHEAT
     Return Air Path Component Nodes,15,AIRLOOPHVAC:ZONEMIXER,AIR LOOP HVAC ZONE MIXER 1,NODE 133,NODE 44,PACKAGED ROOFTOP VAV WITH REHEAT
     Return Air Path Component Nodes,16,AIRLOOPHVAC:ZONEMIXER,AIR LOOP HVAC ZONE MIXER 1,NODE 138,NODE 44,PACKAGED ROOFTOP VAV WITH REHEAT
     Return Air Path Component Nodes,17,AIRLOOPHVAC:ZONEMIXER,AIR LOOP HVAC ZONE MIXER 1,NODE 143,NODE 44,PACKAGED ROOFTOP VAV WITH REHEAT
     Return Air Path Component Nodes,18,AIRLOOPHVAC:ZONEMIXER,AIR LOOP HVAC ZONE MIXER 1,NODE 148,NODE 44,PACKAGED ROOFTOP VAV WITH REHEAT
     Return Air Path Component Nodes,19,AIRLOOPHVAC:ZONEMIXER,AIR LOOP HVAC ZONE MIXER 1,NODE 153,NODE 44,PACKAGED ROOFTOP VAV WITH REHEAT
     Return Air Path Component Nodes,20,AIRLOOPHVAC:ZONEMIXER,AIR LOOP HVAC ZONE MIXER 1,NODE 158,NODE 44,PACKAGED ROOFTOP VAV WITH REHEAT
     Return Air Path Component Nodes,21,AIRLOOPHVAC:ZONEMIXER,AIR LOOP HVAC ZONE MIXER 1,NODE 163,NODE 44,PACKAGED ROOFTOP VAV WITH REHEAT
     Return Air Path Component Nodes,22,AIRLOOPHVAC:ZONEMIXER,AIR LOOP HVAC ZONE MIXER 1,NODE 168,NODE 44,PACKAGED ROOFTOP VAV WITH REHEAT
     Return Air Path Component Nodes,23,AIRLOOPHVAC:ZONEMIXER,AIR LOOP HVAC ZONE MIXER 1,NODE 173,NODE 44,PACKAGED ROOFTOP VAV WITH REHEAT
     Return Air Path Component Nodes,24,AIRLOOPHVAC:ZONEMIXER,AIR LOOP HVAC ZONE MIXER 1,NODE 178,NODE 44,PACKAGED ROOFTOP VAV WITH REHEAT
     Return Air Path Component Nodes,25,AIRLOOPHVAC:ZONEMIXER,AIR LOOP HVAC ZONE MIXER 1,NODE 183,NODE 44,PACKAGED ROOFTOP VAV WITH REHEAT
     Return Air Path Component Nodes,26,AIRLOOPHVAC:ZONEMIXER,AIR LOOP HVAC ZONE MIXER 1,NODE 188,NODE 44,PACKAGED ROOFTOP VAV WITH REHEAT
     Return Air Path Component Nodes,27,AIRLOOPHVAC:ZONEMIXER,AIR LOOP HVAC ZONE MIXER 1,NODE 193,NODE 44,PACKAGED ROOFTOP VAV WITH REHEAT
     Return Air Path Component Nodes,28,AIRLOOPHVAC:ZONEMIXER,AIR LOOP HVAC ZONE MIXER 1,NODE 198,NODE 44,PACKAGED ROOFTOP VAV WITH REHEAT
     Return Air Path Component Nodes,29,AIRLOOPHVAC:ZONEMIXER,AIR LOOP HVAC ZONE MIXER 1,NODE 203,NODE 44,PACKAGED ROOFTOP VAV WITH REHEAT
     Return Air Path Component Nodes,30,AIRLOOPHVAC:ZONEMIXER,AIR LOOP HVAC ZONE MIXER 1,NODE 208,NODE 44,PACKAGED ROOFTOP VAV WITH REHEAT
     Return Air Path Component Nodes,31,AIRLOOPHVAC:ZONEMIXER,AIR LOOP HVAC ZONE MIXER 1,NODE 213,NODE 44,PACKAGED ROOFTOP VAV WITH REHEAT
     Return Air Path Component Nodes,32,AIRLOOPHVAC:ZONEMIXER,AIR LOOP HVAC ZONE MIXER 1,NODE 218,NODE 44,PACKAGED ROOFTOP VAV WITH REHEAT
     Return Air Path Component Nodes,33,AIRLOOPHVAC:ZONEMIXER,AIR LOOP HVAC ZONE MIXER 1,NODE 223,NODE 44,PACKAGED ROOFTOP VAV WITH REHEAT
     Return Air Path Component Nodes,34,AIRLOOPHVAC:ZONEMIXER,AIR LOOP HVAC ZONE MIXER 1,NODE 228,NODE 44,PACKAGED ROOFTOP VAV WITH REHEAT
     Return Air Path Component Nodes,35,AIRLOOPHVAC:ZONEMIXER,AIR LOOP HVAC ZONE MIXER 1,NODE 233,NODE 44,PACKAGED ROOFTOP VAV WITH REHEAT
     Return Air Path Component Nodes,36,AIRLOOPHVAC:ZONEMIXER,AIR LOOP HVAC ZONE MIXER 1,NODE 238,NODE 44,PACKAGED ROOFTOP VAV WITH REHEAT
     Return Air Path Component Nodes,37,AIRLOOPHVAC:ZONEMIXER,AIR LOOP HVAC ZONE MIXER 1,NODE 243,NODE 44,PACKAGED ROOFTOP VAV WITH REHEAT
     Return Air Path Component Nodes,38,AIRLOOPHVAC:ZONEMIXER,AIR LOOP HVAC ZONE MIXER 1,NODE 248,NODE 44,PACKAGED ROOFTOP VAV WITH REHEAT
     Return Air Path Component Nodes,39,AIRLOOPHVAC:ZONEMIXER,AIR LOOP HVAC ZONE MIXER 1,NODE 253,NODE 44,PACKAGED ROOFTOP VAV WITH REHEAT
     Return Air Path Component Nodes,40,AIRLOOPHVAC:ZONEMIXER,AIR LOOP HVAC ZONE MIXER 1,NODE 258,NODE 44,PACKAGED ROOFTOP VAV WITH REHEAT
! <#Nodes on Return Air Path>,<Number of Nodes>
! <Return Air Path Node>,<Node Type>,<Node Count>,<Node Name>,<AirLoopHVAC Name>
   #Nodes on Return Air Path,41
   Return Air Path Node,Outlet Node,1,NODE 44,PACKAGED ROOFTOP VAV WITH REHEAT
   Return Air Path Node,Inlet Node,2,NODE 63,PACKAGED ROOFTOP VAV WITH REHEAT
   Return Air Path Node,Inlet Node,3,NODE 68,PACKAGED ROOFTOP VAV WITH REHEAT
   Return Air Path Node,Inlet Node,4,NODE 73,PACKAGED ROOFTOP VAV WITH REHEAT
   Return Air Path Node,Inlet Node,5,NODE 78,PACKAGED ROOFTOP VAV WITH REHEAT
   Return Air Path Node,Inlet Node,6,NODE 83,PACKAGED ROOFTOP VAV WITH REHEAT
   Return Air Path Node,Inlet Node,7,NODE 88,PACKAGED ROOFTOP VAV WITH REHEAT
   Return Air Path Node,Inlet Node,8,NODE 93,PACKAGED ROOFTOP VAV WITH REHEAT
   Return Air Path Node,Inlet Node,9,NODE 98,PACKAGED ROOFTOP VAV WITH REHEAT
   Return Air Path Node,Inlet Node,10,NODE 103,PACKAGED ROOFTOP VAV WITH REHEAT
   Return Air Path Node,Inlet Node,11,NODE 108,PACKAGED ROOFTOP VAV WITH REHEAT
   Return Air Path Node,Inlet Node,12,NODE 113,PACKAGED ROOFTOP VAV WITH REHEAT
   Return Air Path Node,Inlet Node,13,NODE 118,PACKAGED ROOFTOP VAV WITH REHEAT
   Return Air Path Node,Inlet Node,14,NODE 123,PACKAGED ROOFTOP VAV WITH REHEAT
   Return Air Path Node,Inlet Node,15,NODE 128,PACKAGED ROOFTOP VAV WITH REHEAT
   Return Air Path Node,Inlet Node,16,NODE 133,PACKAGED ROOFTOP VAV WITH REHEAT
   Return Air Path Node,Inlet Node,17,NODE 138,PACKAGED ROOFTOP VAV WITH REHEAT
   Return Air Path Node,Inlet Node,18,NODE 143,PACKAGED ROOFTOP VAV WITH REHEAT
   Return Air Path Node,Inlet Node,19,NODE 148,PACKAGED ROOFTOP VAV WITH REHEAT
   Return Air Path Node,Inlet Node,20,NODE 153,PACKAGED ROOFTOP VAV WITH REHEAT
   Return Air Path Node,Inlet Node,21,NODE 158,PACKAGED ROOFTOP VAV WITH REHEAT
   Return Air Path Node,Inlet Node,22,NODE 163,PACKAGED ROOFTOP VAV WITH REHEAT
   Return Air Path Node,Inlet Node,23,NODE 168,PACKAGED ROOFTOP VAV WITH REHEAT
   Return Air Path Node,Inlet Node,24,NODE 173,PACKAGED ROOFTOP VAV WITH REHEAT
   Return Air Path Node,Inlet Node,25,NODE 178,PACKAGED ROOFTOP VAV WITH REHEAT
   Return Air Path Node,Inlet Node,26,NODE 183,PACKAGED ROOFTOP VAV WITH REHEAT
   Return Air Path Node,Inlet Node,27,NODE 188,PACKAGED ROOFTOP VAV WITH REHEAT
   Return Air Path Node,Inlet Node,28,NODE 193,PACKAGED ROOFTOP VAV WITH REHEAT
   Return Air Path Node,Inlet Node,29,NODE 198,PACKAGED ROOFTOP VAV WITH REHEAT
   Return Air Path Node,Inlet Node,30,NODE 203,PACKAGED ROOFTOP VAV WITH REHEAT
   Return Air Path Node,Inlet Node,31,NODE 208,PACKAGED ROOFTOP VAV WITH REHEAT
   Return Air Path Node,Inlet Node,32,NODE 213,PACKAGED ROOFTOP VAV WITH REHEAT
   Return Air Path Node,Inlet Node,33,NODE 218,PACKAGED ROOFTOP VAV WITH REHEAT
   Return Air Path Node,Inlet Node,34,NODE 223,PACKAGED ROOFTOP VAV WITH REHEAT
   Return Air Path Node,Inlet Node,35,NODE 228,PACKAGED ROOFTOP VAV WITH REHEAT
   Return Air Path Node,Inlet Node,36,NODE 233,PACKAGED ROOFTOP VAV WITH REHEAT
   Return Air Path Node,Inlet Node,37,NODE 238,PACKAGED ROOFTOP VAV WITH REHEAT
   Return Air Path Node,Inlet Node,38,NODE 243,PACKAGED ROOFTOP VAV WITH REHEAT
   Return Air Path Node,Inlet Node,39,NODE 248,PACKAGED ROOFTOP VAV WITH REHEAT
   Return Air Path Node,Inlet Node,40,NODE 253,PACKAGED ROOFTOP VAV WITH REHEAT
   Return Air Path Node,Inlet Node,41,NODE 258,PACKAGED ROOFTOP VAV WITH REHEAT
! ===============================================================
! #Outdoor Air Nodes,<Number of Outdoor Air Nodes>
 #Outdoor Air Nodes,1                   
! <Outdoor Air Node>,<NodeNumber>,<Node Name>
 Outdoor Air Node,142,NODE 46
! ===============================================================
! <#Component Sets>,<Number of Component Sets>
 #Component Sets,134
! <Component Set>,<Component Set Count>,<Parent Object Type>,<Parent Object Name>,<Component Type>,<Component Name>,<Inlet Node ID>,<Outlet Node ID>,<Description>
 Component Set,1,BRANCH,BRANCH {6072E8E7-057E-4978-9874-7612F3347A50},AIRLOOPHVAC:OUTDOORAIRSYSTEM,AIR LOOP HVAC OUTDOOR AIR SYSTEM 1,NODE 41,NODE 48,Air Nodes
 Component Set,2,BRANCH,BRANCH {6072E8E7-057E-4978-9874-7612F3347A50},COILSYSTEM:COOLING:DX,COIL COOLING DX TWO SPEED 1 COILSYSTEM,NODE 48,NODE 49,Air Nodes
 Component Set,3,BRANCH,BRANCH {6072E8E7-057E-4978-9874-7612F3347A50},COIL:HEATING:WATER,COIL HEATING WATER 1,NODE 49,NODE 50,Air Nodes
 Component Set,4,BRANCH,BRANCH {6072E8E7-057E-4978-9874-7612F3347A50},FAN:VARIABLEVOLUME,FAN VARIABLE VOLUME 1,NODE 50,NODE 42,Air Nodes
 Component Set,5,BRANCH,HOT WATER LOOP SUPPLY INLET BRANCH,PUMP:VARIABLESPEED,PUMP VARIABLE SPEED 1,NODE 51,NODE 57,Water Nodes
 Component Set,6,BRANCH,HOT WATER LOOP SUPPLY BRANCH 1,BOILER:HOTWATER,BOILER HOT WATER 1,NODE 53,NODE 58,Hot Water Nodes
 Component Set,7,BRANCH,HOT WATER LOOP SUPPLY BRANCH 2,PIPE:ADIABATIC,PIPE ADIABATIC 1,NODE 59,NODE 60,Pipe Nodes
 Component Set,8,BRANCH,HOT WATER LOOP SUPPLY OUTLET BRANCH,PIPE:ADIABATIC,PIPE ADIABATIC 2,NODE 61,NODE 52,Pipe Nodes
 Component Set,9,BRANCH,HOT WATER LOOP DEMAND INLET BRANCH,PIPE:ADIABATIC,HOT WATER LOOP DEMAND INLET PIPE,NODE 54,HOT WATER LOOP DEMAND INLET PIPE NODE,Pipe Nodes
 Component Set,10,BRANCH,HOT WATER LOOP DEMAND BRANCH 1,COIL:HEATING:WATER,COIL HEATING WATER 1,NODE 56,NODE 62,Water Nodes
 Component Set,11,BRANCH,HOT WATER LOOP DEMAND BRANCH 2,COIL:HEATING:WATER,COIL HEATING WATER 3,NODE 65,NODE 66,Water Nodes
 Component Set,12,BRANCH,HOT WATER LOOP DEMAND BRANCH 3,COIL:HEATING:WATER,COIL HEATING WATER 4,NODE 70,NODE 71,Water Nodes
 Component Set,13,BRANCH,HOT WATER LOOP DEMAND BRANCH 4,COIL:HEATING:WATER,COIL HEATING WATER 5,NODE 75,NODE 76,Water Nodes
 Component Set,14,BRANCH,HOT WATER LOOP DEMAND BRANCH 5,COIL:HEATING:WATER,COIL HEATING WATER 6,NODE 80,NODE 81,Water Nodes
 Component Set,15,BRANCH,HOT WATER LOOP DEMAND BRANCH 6,COIL:HEATING:WATER,COIL HEATING WATER 7,NODE 85,NODE 86,Water Nodes
 Component Set,16,BRANCH,HOT WATER LOOP DEMAND BRANCH 7,COIL:HEATING:WATER,COIL HEATING WATER 8,NODE 90,NODE 91,Water Nodes
 Component Set,17,BRANCH,HOT WATER LOOP DEMAND BRANCH 8,COIL:HEATING:WATER,COIL HEATING WATER 9,NODE 95,NODE 96,Water Nodes
 Component Set,18,BRANCH,HOT WATER LOOP DEMAND BRANCH 9,COIL:HEATING:WATER,COIL HEATING WATER 10,NODE 100,NODE 101,Water Nodes
 Component Set,19,BRANCH,HOT WATER LOOP DEMAND BRANCH 10,COIL:HEATING:WATER,COIL HEATING WATER 11,NODE 105,NODE 106,Water Nodes
 Component Set,20,BRANCH,HOT WATER LOOP DEMAND BRANCH 11,COIL:HEATING:WATER,COIL HEATING WATER 12,NODE 110,NODE 111,Water Nodes
 Component Set,21,BRANCH,HOT WATER LOOP DEMAND BRANCH 12,COIL:HEATING:WATER,COIL HEATING WATER 13,NODE 115,NODE 116,Water Nodes
 Component Set,22,BRANCH,HOT WATER LOOP DEMAND BRANCH 13,COIL:HEATING:WATER,COIL HEATING WATER 14,NODE 120,NODE 121,Water Nodes
 Component Set,23,BRANCH,HOT WATER LOOP DEMAND BRANCH 14,COIL:HEATING:WATER,COIL HEATING WATER 15,NODE 125,NODE 126,Water Nodes
 Component Set,24,BRANCH,HOT WATER LOOP DEMAND BRANCH 15,COIL:HEATING:WATER,COIL HEATING WATER 16,NODE 130,NODE 131,Water Nodes
 Component Set,25,BRANCH,HOT WATER LOOP DEMAND BRANCH 16,COIL:HEATING:WATER,COIL HEATING WATER 17,NODE 135,NODE 136,Water Nodes
 Component Set,26,BRANCH,HOT WATER LOOP DEMAND BRANCH 17,COIL:HEATING:WATER,COIL HEATING WATER 18,NODE 140,NODE 141,Water Nodes
 Component Set,27,BRANCH,HOT WATER LOOP DEMAND BRANCH 18,COIL:HEATING:WATER,COIL HEATING WATER 19,NODE 145,NODE 146,Water Nodes
 Component Set,28,BRANCH,HOT WATER LOOP DEMAND BRANCH 19,COIL:HEATING:WATER,COIL HEATING WATER 20,NODE 150,NODE 151,Water Nodes
 Component Set,29,BRANCH,HOT WATER LOOP DEMAND BRANCH 20,COIL:HEATING:WATER,COIL HEATING WATER 21,NODE 155,NODE 156,Water Nodes
 Component Set,30,BRANCH,HOT WATER LOOP DEMAND BRANCH 21,COIL:HEATING:WATER,COIL HEATING WATER 22,NODE 160,NODE 161,Water Nodes
 Component Set,31,BRANCH,HOT WATER LOOP DEMAND BRANCH 22,COIL:HEATING:WATER,COIL HEATING WATER 23,NODE 165,NODE 166,Water Nodes
 Component Set,32,BRANCH,HOT WATER LOOP DEMAND BRANCH 23,COIL:HEATING:WATER,COIL HEATING WATER 24,NODE 170,NODE 171,Water Nodes
 Component Set,33,BRANCH,HOT WATER LOOP DEMAND BRANCH 24,COIL:HEATING:WATER,COIL HEATING WATER 25,NODE 175,NODE 176,Water Nodes
 Component Set,34,BRANCH,HOT WATER LOOP DEMAND BRANCH 25,COIL:HEATING:WATER,COIL HEATING WATER 26,NODE 180,NODE 181,Water Nodes
 Component Set,35,BRANCH,HOT WATER LOOP DEMAND BRANCH 26,COIL:HEATING:WATER,COIL HEATING WATER 27,NODE 185,NODE 186,Water Nodes
 Component Set,36,BRANCH,HOT WATER LOOP DEMAND BRANCH 27,COIL:HEATING:WATER,COIL HEATING WATER 28,NODE 190,NODE 191,Water Nodes
 Component Set,37,BRANCH,HOT WATER LOOP DEMAND BRANCH 28,COIL:HEATING:WATER,COIL HEATING WATER 29,NODE 195,NODE 196,Water Nodes
 Component Set,38,BRANCH,HOT WATER LOOP DEMAND BRANCH 29,COIL:HEATING:WATER,COIL HEATING WATER 30,NODE 200,NODE 201,Water Nodes
 Component Set,39,BRANCH,HOT WATER LOOP DEMAND BRANCH 30,COIL:HEATING:WATER,COIL HEATING WATER 31,NODE 205,NODE 206,Water Nodes
 Component Set,40,BRANCH,HOT WATER LOOP DEMAND BRANCH 31,COIL:HEATING:WATER,COIL HEATING WATER 32,NODE 210,NODE 211,Water Nodes
 Component Set,41,BRANCH,HOT WATER LOOP DEMAND BRANCH 32,COIL:HEATING:WATER,COIL HEATING WATER 33,NODE 215,NODE 216,Water Nodes
 Component Set,42,BRANCH,HOT WATER LOOP DEMAND BRANCH 33,COIL:HEATING:WATER,COIL HEATING WATER 34,NODE 220,NODE 221,Water Nodes
 Component Set,43,BRANCH,HOT WATER LOOP DEMAND BRANCH 34,COIL:HEATING:WATER,COIL HEATING WATER 35,NODE 225,NODE 226,Water Nodes
 Component Set,44,BRANCH,HOT WATER LOOP DEMAND BRANCH 35,COIL:HEATING:WATER,COIL HEATING WATER 36,NODE 230,NODE 231,Water Nodes
 Component Set,45,BRANCH,HOT WATER LOOP DEMAND BRANCH 36,COIL:HEATING:WATER,COIL HEATING WATER 37,NODE 235,NODE 236,Water Nodes
 Component Set,46,BRANCH,HOT WATER LOOP DEMAND BRANCH 37,COIL:HEATING:WATER,COIL HEATING WATER 38,NODE 240,NODE 241,Water Nodes
 Component Set,47,BRANCH,HOT WATER LOOP DEMAND BRANCH 38,COIL:HEATING:WATER,COIL HEATING WATER 39,NODE 245,NODE 246,Water Nodes
 Component Set,48,BRANCH,HOT WATER LOOP DEMAND BRANCH 39,COIL:HEATING:WATER,COIL HEATING WATER 40,NODE 250,NODE 251,Water Nodes
 Component Set,49,BRANCH,HOT WATER LOOP DEMAND BRANCH 40,COIL:HEATING:WATER,COIL HEATING WATER 41,NODE 255,NODE 256,Water Nodes
 Component Set,50,BRANCH,HOT WATER LOOP DEMAND BRANCH 41,COIL:HEATING:WATER,COIL HEATING WATER 42,NODE 260,NODE 261,Water Nodes
 Component Set,51,BRANCH,HOT WATER LOOP DEMAND BYPASS BRANCH,PIPE:ADIABATIC,HOT WATER LOOP DEMAND BYPASS PIPE,HOT WATER LOOP DEMAND BYPASS PIPE INLET NODE,HOT WATER LOOP DEMAND BYPASS PIPE OUTLET NODE,Pipe Nodes
 Component Set,52,BRANCH,HOT WATER LOOP DEMAND OUTLET BRANCH,PIPE:ADIABATIC,HOT WATER LOOP DEMAND OUTLET PIPE,HOT WATER LOOP DEMAND OUTLET PIPE NODE,NODE 55,Pipe Nodes
 Component Set,53,ZONEHVAC:AIRDISTRIBUTIONUNIT,ZONEHVAC:AIRDISTRIBUTIONUNIT {06CB3B37-D074-4134-878B-75E163273195},AIRTERMINAL:SINGLEDUCT:VAV:REHEAT,AIR TERMINAL SINGLE DUCT VAV REHEAT 2,NODE 64,NODE 45,Air Nodes
 Component Set,54,ZONEHVAC:AIRDISTRIBUTIONUNIT,ZONEHVAC:AIRDISTRIBUTIONUNIT {F52F5BD4-E36D-4379-A129-92ADD2840CB1},AIRTERMINAL:SINGLEDUCT:VAV:REHEAT,AIR TERMINAL SINGLE DUCT VAV REHEAT 3,NODE 69,NODE 67,Air Nodes
 Component Set,55,ZONEHVAC:AIRDISTRIBUTIONUNIT,ZONEHVAC:AIRDISTRIBUTIONUNIT {9C998A2D-2829-4A0C-B379-938E5D1BF931},AIRTERMINAL:SINGLEDUCT:VAV:REHEAT,AIR TERMINAL SINGLE DUCT VAV REHEAT 4,NODE 74,NODE 72,Air Nodes
 Component Set,56,ZONEHVAC:AIRDISTRIBUTIONUNIT,ZONEHVAC:AIRDISTRIBUTIONUNIT {F4BABC16-B763-488B-9220-DCE098700603},AIRTERMINAL:SINGLEDUCT:VAV:REHEAT,AIR TERMINAL SINGLE DUCT VAV REHEAT 5,NODE 79,NODE 77,Air Nodes
 Component Set,57,ZONEHVAC:AIRDISTRIBUTIONUNIT,ZONEHVAC:AIRDISTRIBUTIONUNIT {22212D48-1FBF-424C-B6E8-69E1220321CA},AIRTERMINAL:SINGLEDUCT:VAV:REHEAT,AIR TERMINAL SINGLE DUCT VAV REHEAT 6,NODE 84,NODE 82,Air Nodes
 Component Set,58,ZONEHVAC:AIRDISTRIBUTIONUNIT,ZONEHVAC:AIRDISTRIBUTIONUNIT {1ED628D6-6E9C-4C64-AA20-2CF1C8E9A2B2},AIRTERMINAL:SINGLEDUCT:VAV:REHEAT,AIR TERMINAL SINGLE DUCT VAV REHEAT 7,NODE 89,NODE 87,Air Nodes
 Component Set,59,ZONEHVAC:AIRDISTRIBUTIONUNIT,ZONEHVAC:AIRDISTRIBUTIONUNIT {5A17D2C7-623D-4547-817B-BAB3CD01CF32},AIRTERMINAL:SINGLEDUCT:VAV:REHEAT,AIR TERMINAL SINGLE DUCT VAV REHEAT 8,NODE 94,NODE 92,Air Nodes
 Component Set,60,ZONEHVAC:AIRDISTRIBUTIONUNIT,ZONEHVAC:AIRDISTRIBUTIONUNIT {A3793B3B-A0F6-4059-86A2-6F53E9BD5681},AIRTERMINAL:SINGLEDUCT:VAV:REHEAT,AIR TERMINAL SINGLE DUCT VAV REHEAT 9,NODE 99,NODE 97,Air Nodes
 Component Set,61,ZONEHVAC:AIRDISTRIBUTIONUNIT,ZONEHVAC:AIRDISTRIBUTIONUNIT {1268FBB1-4EAA-44E3-B3F0-FB5321AD3A36},AIRTERMINAL:SINGLEDUCT:VAV:REHEAT,AIR TERMINAL SINGLE DUCT VAV REHEAT 10,NODE 104,NODE 102,Air Nodes
 Component Set,62,ZONEHVAC:AIRDISTRIBUTIONUNIT,ZONEHVAC:AIRDISTRIBUTIONUNIT {52E4F3F2-C3AB-423B-8086-C0EEB3E29408},AIRTERMINAL:SINGLEDUCT:VAV:REHEAT,AIR TERMINAL SINGLE DUCT VAV REHEAT 11,NODE 109,NODE 107,Air Nodes
 Component Set,63,ZONEHVAC:AIRDISTRIBUTIONUNIT,ZONEHVAC:AIRDISTRIBUTIONUNIT {699C22D2-4B94-4776-BC7C-36A1E28DBB66},AIRTERMINAL:SINGLEDUCT:VAV:REHEAT,AIR TERMINAL SINGLE DUCT VAV REHEAT 12,NODE 114,NODE 112,Air Nodes
 Component Set,64,ZONEHVAC:AIRDISTRIBUTIONUNIT,ZONEHVAC:AIRDISTRIBUTIONUNIT {C4A2AA75-AA59-4013-999A-37628A5CC48D},AIRTERMINAL:SINGLEDUCT:VAV:REHEAT,AIR TERMINAL SINGLE DUCT VAV REHEAT 13,NODE 119,NODE 117,Air Nodes
 Component Set,65,ZONEHVAC:AIRDISTRIBUTIONUNIT,ZONEHVAC:AIRDISTRIBUTIONUNIT {B77AAF3B-D0F7-4FE8-9EBB-AC6ED7F0FABB},AIRTERMINAL:SINGLEDUCT:VAV:REHEAT,AIR TERMINAL SINGLE DUCT VAV REHEAT 14,NODE 124,NODE 122,Air Nodes
 Component Set,66,ZONEHVAC:AIRDISTRIBUTIONUNIT,ZONEHVAC:AIRDISTRIBUTIONUNIT {19A7F550-DFB8-44EC-AA6A-91001836FB45},AIRTERMINAL:SINGLEDUCT:VAV:REHEAT,AIR TERMINAL SINGLE DUCT VAV REHEAT 15,NODE 129,NODE 127,Air Nodes
 Component Set,67,ZONEHVAC:AIRDISTRIBUTIONUNIT,ZONEHVAC:AIRDISTRIBUTIONUNIT {62AE07D1-86F9-4304-9221-366F29CAA95E},AIRTERMINAL:SINGLEDUCT:VAV:REHEAT,AIR TERMINAL SINGLE DUCT VAV REHEAT 16,NODE 134,NODE 132,Air Nodes
 Component Set,68,ZONEHVAC:AIRDISTRIBUTIONUNIT,ZONEHVAC:AIRDISTRIBUTIONUNIT {A40C43E8-A719-43AD-8217-DCB7F13108AB},AIRTERMINAL:SINGLEDUCT:VAV:REHEAT,AIR TERMINAL SINGLE DUCT VAV REHEAT 17,NODE 139,NODE 137,Air Nodes
 Component Set,69,ZONEHVAC:AIRDISTRIBUTIONUNIT,ZONEHVAC:AIRDISTRIBUTIONUNIT {8E407495-0AD0-444E-8E3F-DB8E05393C2F},AIRTERMINAL:SINGLEDUCT:VAV:REHEAT,AIR TERMINAL SINGLE DUCT VAV REHEAT 18,NODE 144,NODE 142,Air Nodes
 Component Set,70,ZONEHVAC:AIRDISTRIBUTIONUNIT,ZONEHVAC:AIRDISTRIBUTIONUNIT {FC576955-116B-4AB2-B21F-3C67C134E958},AIRTERMINAL:SINGLEDUCT:VAV:REHEAT,AIR TERMINAL SINGLE DUCT VAV REHEAT 19,NODE 149,NODE 147,Air Nodes
 Component Set,71,ZONEHVAC:AIRDISTRIBUTIONUNIT,ZONEHVAC:AIRDISTRIBUTIONUNIT {E5E46122-103F-4BEE-9790-B25AAA13A83F},AIRTERMINAL:SINGLEDUCT:VAV:REHEAT,AIR TERMINAL SINGLE DUCT VAV REHEAT 20,NODE 154,NODE 152,Air Nodes
 Component Set,72,ZONEHVAC:AIRDISTRIBUTIONUNIT,ZONEHVAC:AIRDISTRIBUTIONUNIT {D54F96A8-867C-4A9B-BE68-8405A1A24E5F},AIRTERMINAL:SINGLEDUCT:VAV:REHEAT,AIR TERMINAL SINGLE DUCT VAV REHEAT 21,NODE 159,NODE 157,Air Nodes
 Component Set,73,ZONEHVAC:AIRDISTRIBUTIONUNIT,ZONEHVAC:AIRDISTRIBUTIONUNIT {0A3C9C4D-76A6-4C74-8496-954F70943D21},AIRTERMINAL:SINGLEDUCT:VAV:REHEAT,AIR TERMINAL SINGLE DUCT VAV REHEAT 22,NODE 164,NODE 162,Air Nodes
 Component Set,74,ZONEHVAC:AIRDISTRIBUTIONUNIT,ZONEHVAC:AIRDISTRIBUTIONUNIT {B396FE7E-6240-429D-A46F-8AE76A4E6E79},AIRTERMINAL:SINGLEDUCT:VAV:REHEAT,AIR TERMINAL SINGLE DUCT VAV REHEAT 23,NODE 169,NODE 167,Air Nodes
 Component Set,75,ZONEHVAC:AIRDISTRIBUTIONUNIT,ZONEHVAC:AIRDISTRIBUTIONUNIT {EE11F43C-A496-4852-BE63-FFC7D2CA1A4D},AIRTERMINAL:SINGLEDUCT:VAV:REHEAT,AIR TERMINAL SINGLE DUCT VAV REHEAT 24,NODE 174,NODE 172,Air Nodes
 Component Set,76,ZONEHVAC:AIRDISTRIBUTIONUNIT,ZONEHVAC:AIRDISTRIBUTIONUNIT {5AF8BCF1-8A7E-4521-B1FD-485011B66782},AIRTERMINAL:SINGLEDUCT:VAV:REHEAT,AIR TERMINAL SINGLE DUCT VAV REHEAT 25,NODE 179,NODE 177,Air Nodes
 Component Set,77,ZONEHVAC:AIRDISTRIBUTIONUNIT,ZONEHVAC:AIRDISTRIBUTIONUNIT {2F97CB3D-28C1-4B68-8BF9-8246A9AE756C},AIRTERMINAL:SINGLEDUCT:VAV:REHEAT,AIR TERMINAL SINGLE DUCT VAV REHEAT 26,NODE 184,NODE 182,Air Nodes
 Component Set,78,ZONEHVAC:AIRDISTRIBUTIONUNIT,ZONEHVAC:AIRDISTRIBUTIONUNIT {EF3F2651-C580-4199-9E1C-44540AFC154B},AIRTERMINAL:SINGLEDUCT:VAV:REHEAT,AIR TERMINAL SINGLE DUCT VAV REHEAT 27,NODE 189,NODE 187,Air Nodes
 Component Set,79,ZONEHVAC:AIRDISTRIBUTIONUNIT,ZONEHVAC:AIRDISTRIBUTIONUNIT {DDB04C3F-5FF3-4BFC-AD41-DA12BC5ACA5E},AIRTERMINAL:SINGLEDUCT:VAV:REHEAT,AIR TERMINAL SINGLE DUCT VAV REHEAT 28,NODE 194,NODE 192,Air Nodes
 Component Set,80,ZONEHVAC:AIRDISTRIBUTIONUNIT,ZONEHVAC:AIRDISTRIBUTIONUNIT {2411B19E-CC4E-426C-BFC0-A5B2583E66C4},AIRTERMINAL:SINGLEDUCT:VAV:REHEAT,AIR TERMINAL SINGLE DUCT VAV REHEAT 29,NODE 199,NODE 197,Air Nodes
 Component Set,81,ZONEHVAC:AIRDISTRIBUTIONUNIT,ZONEHVAC:AIRDISTRIBUTIONUNIT {D2F0E42A-E044-4AEC-B655-220B270B3A4B},AIRTERMINAL:SINGLEDUCT:VAV:REHEAT,AIR TERMINAL SINGLE DUCT VAV REHEAT 30,NODE 204,NODE 202,Air Nodes
 Component Set,82,ZONEHVAC:AIRDISTRIBUTIONUNIT,ZONEHVAC:AIRDISTRIBUTIONUNIT {9005E582-55D0-4239-A880-739A3E65008D},AIRTERMINAL:SINGLEDUCT:VAV:REHEAT,AIR TERMINAL SINGLE DUCT VAV REHEAT 31,NODE 209,NODE 207,Air Nodes
 Component Set,83,ZONEHVAC:AIRDISTRIBUTIONUNIT,ZONEHVAC:AIRDISTRIBUTIONUNIT {B2985407-2455-4600-B444-EF238BEF7278},AIRTERMINAL:SINGLEDUCT:VAV:REHEAT,AIR TERMINAL SINGLE DUCT VAV REHEAT 32,NODE 214,NODE 212,Air Nodes
 Component Set,84,ZONEHVAC:AIRDISTRIBUTIONUNIT,ZONEHVAC:AIRDISTRIBUTIONUNIT {A42AEF19-30DC-49C0-8765-53C7D1C382A1},AIRTERMINAL:SINGLEDUCT:VAV:REHEAT,AIR TERMINAL SINGLE DUCT VAV REHEAT 33,NODE 219,NODE 217,Air Nodes
 Component Set,85,ZONEHVAC:AIRDISTRIBUTIONUNIT,ZONEHVAC:AIRDISTRIBUTIONUNIT {26270561-EF37-4003-9B8F-B022D34158CA},AIRTERMINAL:SINGLEDUCT:VAV:REHEAT,AIR TERMINAL SINGLE DUCT VAV REHEAT 34,NODE 224,NODE 222,Air Nodes
 Component Set,86,ZONEHVAC:AIRDISTRIBUTIONUNIT,ZONEHVAC:AIRDISTRIBUTIONUNIT {05CFC318-2481-408D-BCFA-BEB4DB50F7AB},AIRTERMINAL:SINGLEDUCT:VAV:REHEAT,AIR TERMINAL SINGLE DUCT VAV REHEAT 35,NODE 229,NODE 227,Air Nodes
 Component Set,87,ZONEHVAC:AIRDISTRIBUTIONUNIT,ZONEHVAC:AIRDISTRIBUTIONUNIT {05B7E809-A336-45B2-8FF3-43073B794564},AIRTERMINAL:SINGLEDUCT:VAV:REHEAT,AIR TERMINAL SINGLE DUCT VAV REHEAT 36,NODE 234,NODE 232,Air Nodes
 Component Set,88,ZONEHVAC:AIRDISTRIBUTIONUNIT,ZONEHVAC:AIRDISTRIBUTIONUNIT {D038F420-13FE-41C4-82D7-5310D1087922},AIRTERMINAL:SINGLEDUCT:VAV:REHEAT,AIR TERMINAL SINGLE DUCT VAV REHEAT 37,NODE 239,NODE 237,Air Nodes
 Component Set,89,ZONEHVAC:AIRDISTRIBUTIONUNIT,ZONEHVAC:AIRDISTRIBUTIONUNIT {28E3C89B-C9E3-4A5B-AC5A-2733BDD806A3},AIRTERMINAL:SINGLEDUCT:VAV:REHEAT,AIR TERMINAL SINGLE DUCT VAV REHEAT 38,NODE 244,NODE 242,Air Nodes
 Component Set,90,ZONEHVAC:AIRDISTRIBUTIONUNIT,ZONEHVAC:AIRDISTRIBUTIONUNIT {CE28A5E5-B9AE-4939-AB46-B658E7235361},AIRTERMINAL:SINGLEDUCT:VAV:REHEAT,AIR TERMINAL SINGLE DUCT VAV REHEAT 39,NODE 249,NODE 247,Air Nodes
 Component Set,91,ZONEHVAC:AIRDISTRIBUTIONUNIT,ZONEHVAC:AIRDISTRIBUTIONUNIT {6B598491-E798-4AF7-8D18-B8089A689F95},AIRTERMINAL:SINGLEDUCT:VAV:REHEAT,AIR TERMINAL SINGLE DUCT VAV REHEAT 40,NODE 254,NODE 252,Air Nodes
 Component Set,92,ZONEHVAC:AIRDISTRIBUTIONUNIT,ZONEHVAC:AIRDISTRIBUTIONUNIT {960A49F3-549E-4EE5-8D77-ED2CDE17FDDC},AIRTERMINAL:SINGLEDUCT:VAV:REHEAT,AIR TERMINAL SINGLE DUCT VAV REHEAT 41,NODE 259,NODE 257,Air Nodes
 Component Set,93,AIRTERMINAL:SINGLEDUCT:VAV:REHEAT,AIR TERMINAL SINGLE DUCT VAV REHEAT 2,COIL:HEATING:WATER,COIL HEATING WATER 3,AIR TERMINAL SINGLE DUCT VAV REHEAT 2 DAMPER OUTLET,NODE 45,Air Nodes
 Component Set,94,AIRTERMINAL:SINGLEDUCT:VAV:REHEAT,AIR TERMINAL SINGLE DUCT VAV REHEAT 3,COIL:HEATING:WATER,COIL HEATING WATER 4,AIR TERMINAL SINGLE DUCT VAV REHEAT 3 DAMPER OUTLET,NODE 67,Air Nodes
 Component Set,95,AIRTERMINAL:SINGLEDUCT:VAV:REHEAT,AIR TERMINAL SINGLE DUCT VAV REHEAT 4,COIL:HEATING:WATER,COIL HEATING WATER 5,AIR TERMINAL SINGLE DUCT VAV REHEAT 4 DAMPER OUTLET,NODE 72,Air Nodes
 Component Set,96,AIRTERMINAL:SINGLEDUCT:VAV:REHEAT,AIR TERMINAL SINGLE DUCT VAV REHEAT 5,COIL:HEATING:WATER,COIL HEATING WATER 6,AIR TERMINAL SINGLE DUCT VAV REHEAT 5 DAMPER OUTLET,NODE 77,Air Nodes
 Component Set,97,AIRTERMINAL:SINGLEDUCT:VAV:REHEAT,AIR TERMINAL SINGLE DUCT VAV REHEAT 6,COIL:HEATING:WATER,COIL HEATING WATER 7,AIR TERMINAL SINGLE DUCT VAV REHEAT 6 DAMPER OUTLET,NODE 82,Air Nodes
 Component Set,98,AIRTERMINAL:SINGLEDUCT:VAV:REHEAT,AIR TERMINAL SINGLE DUCT VAV REHEAT 7,COIL:HEATING:WATER,COIL HEATING WATER 8,AIR TERMINAL SINGLE DUCT VAV REHEAT 7 DAMPER OUTLET,NODE 87,Air Nodes
 Component Set,99,AIRTERMINAL:SINGLEDUCT:VAV:REHEAT,AIR TERMINAL SINGLE DUCT VAV REHEAT 8,COIL:HEATING:WATER,COIL HEATING WATER 9,AIR TERMINAL SINGLE DUCT VAV REHEAT 8 DAMPER OUTLET,NODE 92,Air Nodes
 Component Set,100,AIRTERMINAL:SINGLEDUCT:VAV:REHEAT,AIR TERMINAL SINGLE DUCT VAV REHEAT 9,COIL:HEATING:WATER,COIL HEATING WATER 10,AIR TERMINAL SINGLE DUCT VAV REHEAT 9 DAMPER OUTLET,NODE 97,Air Nodes
 Component Set,101,AIRTERMINAL:SINGLEDUCT:VAV:REHEAT,AIR TERMINAL SINGLE DUCT VAV REHEAT 10,COIL:HEATING:WATER,COIL HEATING WATER 11,AIR TERMINAL SINGLE DUCT VAV REHEAT 10 DAMPER OUTLET,NODE 102,Air Nodes
 Component Set,102,AIRTERMINAL:SINGLEDUCT:VAV:REHEAT,AIR TERMINAL SINGLE DUCT VAV REHEAT 11,COIL:HEATING:WATER,COIL HEATING WATER 12,AIR TERMINAL SINGLE DUCT VAV REHEAT 11 DAMPER OUTLET,NODE 107,Air Nodes
 Component Set,103,AIRTERMINAL:SINGLEDUCT:VAV:REHEAT,AIR TERMINAL SINGLE DUCT VAV REHEAT 12,COIL:HEATING:WATER,COIL HEATING WATER 13,AIR TERMINAL SINGLE DUCT VAV REHEAT 12 DAMPER OUTLET,NODE 112,Air Nodes
 Component Set,104,AIRTERMINAL:SINGLEDUCT:VAV:REHEAT,AIR TERMINAL SINGLE DUCT VAV REHEAT 13,COIL:HEATING:WATER,COIL HEATING WATER 14,AIR TERMINAL SINGLE DUCT VAV REHEAT 13 DAMPER OUTLET,NODE 117,Air Nodes
 Component Set,105,AIRTERMINAL:SINGLEDUCT:VAV:REHEAT,AIR TERMINAL SINGLE DUCT VAV REHEAT 14,COIL:HEATING:WATER,COIL HEATING WATER 15,AIR TERMINAL SINGLE DUCT VAV REHEAT 14 DAMPER OUTLET,NODE 122,Air Nodes
 Component Set,106,AIRTERMINAL:SINGLEDUCT:VAV:REHEAT,AIR TERMINAL SINGLE DUCT VAV REHEAT 15,COIL:HEATING:WATER,COIL HEATING WATER 16,AIR TERMINAL SINGLE DUCT VAV REHEAT 15 DAMPER OUTLET,NODE 127,Air Nodes
 Component Set,107,AIRTERMINAL:SINGLEDUCT:VAV:REHEAT,AIR TERMINAL SINGLE DUCT VAV REHEAT 16,COIL:HEATING:WATER,COIL HEATING WATER 17,AIR TERMINAL SINGLE DUCT VAV REHEAT 16 DAMPER OUTLET,NODE 132,Air Nodes
 Component Set,108,AIRTERMINAL:SINGLEDUCT:VAV:REHEAT,AIR TERMINAL SINGLE DUCT VAV REHEAT 17,COIL:HEATING:WATER,COIL HEATING WATER 18,AIR TERMINAL SINGLE DUCT VAV REHEAT 17 DAMPER OUTLET,NODE 137,Air Nodes
 Component Set,109,AIRTERMINAL:SINGLEDUCT:VAV:REHEAT,AIR TERMINAL SINGLE DUCT VAV REHEAT 18,COIL:HEATING:WATER,COIL HEATING WATER 19,AIR TERMINAL SINGLE DUCT VAV REHEAT 18 DAMPER OUTLET,NODE 142,Air Nodes
 Component Set,110,AIRTERMINAL:SINGLEDUCT:VAV:REHEAT,AIR TERMINAL SINGLE DUCT VAV REHEAT 19,COIL:HEATING:WATER,COIL HEATING WATER 20,AIR TERMINAL SINGLE DUCT VAV REHEAT 19 DAMPER OUTLET,NODE 147,Air Nodes
 Component Set,111,AIRTERMINAL:SINGLEDUCT:VAV:REHEAT,AIR TERMINAL SINGLE DUCT VAV REHEAT 20,COIL:HEATING:WATER,COIL HEATING WATER 21,AIR TERMINAL SINGLE DUCT VAV REHEAT 20 DAMPER OUTLET,NODE 152,Air Nodes
 Component Set,112,AIRTERMINAL:SINGLEDUCT:VAV:REHEAT,AIR TERMINAL SINGLE DUCT VAV REHEAT 21,COIL:HEATING:WATER,COIL HEATING WATER 22,AIR TERMINAL SINGLE DUCT VAV REHEAT 21 DAMPER OUTLET,NODE 157,Air Nodes
 Component Set,113,AIRTERMINAL:SINGLEDUCT:VAV:REHEAT,AIR TERMINAL SINGLE DUCT VAV REHEAT 22,COIL:HEATING:WATER,COIL HEATING WATER 23,AIR TERMINAL SINGLE DUCT VAV REHEAT 22 DAMPER OUTLET,NODE 162,Air Nodes
 Component Set,114,AIRTERMINAL:SINGLEDUCT:VAV:REHEAT,AIR TERMINAL SINGLE DUCT VAV REHEAT 23,COIL:HEATING:WATER,COIL HEATING WATER 24,AIR TERMINAL SINGLE DUCT VAV REHEAT 23 DAMPER OUTLET,NODE 167,Air Nodes
 Component Set,115,AIRTERMINAL:SINGLEDUCT:VAV:REHEAT,AIR TERMINAL SINGLE DUCT VAV REHEAT 24,COIL:HEATING:WATER,COIL HEATING WATER 25,AIR TERMINAL SINGLE DUCT VAV REHEAT 24 DAMPER OUTLET,NODE 172,Air Nodes
 Component Set,116,AIRTERMINAL:SINGLEDUCT:VAV:REHEAT,AIR TERMINAL SINGLE DUCT VAV REHEAT 25,COIL:HEATING:WATER,COIL HEATING WATER 26,AIR TERMINAL SINGLE DUCT VAV REHEAT 25 DAMPER OUTLET,NODE 177,Air Nodes
 Component Set,117,AIRTERMINAL:SINGLEDUCT:VAV:REHEAT,AIR TERMINAL SINGLE DUCT VAV REHEAT 26,COIL:HEATING:WATER,COIL HEATING WATER 27,AIR TERMINAL SINGLE DUCT VAV REHEAT 26 DAMPER OUTLET,NODE 182,Air Nodes
 Component Set,118,AIRTERMINAL:SINGLEDUCT:VAV:REHEAT,AIR TERMINAL SINGLE DUCT VAV REHEAT 27,COIL:HEATING:WATER,COIL HEATING WATER 28,AIR TERMINAL SINGLE DUCT VAV REHEAT 27 DAMPER OUTLET,NODE 187,Air Nodes
 Component Set,119,AIRTERMINAL:SINGLEDUCT:VAV:REHEAT,AIR TERMINAL SINGLE DUCT VAV REHEAT 28,COIL:HEATING:WATER,COIL HEATING WATER 29,AIR TERMINAL SINGLE DUCT VAV REHEAT 28 DAMPER OUTLET,NODE 192,Air Nodes
 Component Set,120,AIRTERMINAL:SINGLEDUCT:VAV:REHEAT,AIR TERMINAL SINGLE DUCT VAV REHEAT 29,COIL:HEATING:WATER,COIL HEATING WATER 30,AIR TERMINAL SINGLE DUCT VAV REHEAT 29 DAMPER OUTLET,NODE 197,Air Nodes
 Component Set,121,AIRTERMINAL:SINGLEDUCT:VAV:REHEAT,AIR TERMINAL SINGLE DUCT VAV REHEAT 30,COIL:HEATING:WATER,COIL HEATING WATER 31,AIR TERMINAL SINGLE DUCT VAV REHEAT 30 DAMPER OUTLET,NODE 202,Air Nodes
 Component Set,122,AIRTERMINAL:SINGLEDUCT:VAV:REHEAT,AIR TERMINAL SINGLE DUCT VAV REHEAT 31,COIL:HEATING:WATER,COIL HEATING WATER 32,AIR TERMINAL SINGLE DUCT VAV REHEAT 31 DAMPER OUTLET,NODE 207,Air Nodes
 Component Set,123,AIRTERMINAL:SINGLEDUCT:VAV:REHEAT,AIR TERMINAL SINGLE DUCT VAV REHEAT 32,COIL:HEATING:WATER,COIL HEATING WATER 33,AIR TERMINAL SINGLE DUCT VAV REHEAT 32 DAMPER OUTLET,NODE 212,Air Nodes
 Component Set,124,AIRTERMINAL:SINGLEDUCT:VAV:REHEAT,AIR TERMINAL SINGLE DUCT VAV REHEAT 33,COIL:HEATING:WATER,COIL HEATING WATER 34,AIR TERMINAL SINGLE DUCT VAV REHEAT 33 DAMPER OUTLET,NODE 217,Air Nodes
 Component Set,125,AIRTERMINAL:SINGLEDUCT:VAV:REHEAT,AIR TERMINAL SINGLE DUCT VAV REHEAT 34,COIL:HEATING:WATER,COIL HEATING WATER 35,AIR TERMINAL SINGLE DUCT VAV REHEAT 34 DAMPER OUTLET,NODE 222,Air Nodes
 Component Set,126,AIRTERMINAL:SINGLEDUCT:VAV:REHEAT,AIR TERMINAL SINGLE DUCT VAV REHEAT 35,COIL:HEATING:WATER,COIL HEATING WATER 36,AIR TERMINAL SINGLE DUCT VAV REHEAT 35 DAMPER OUTLET,NODE 227,Air Nodes
 Component Set,127,AIRTERMINAL:SINGLEDUCT:VAV:REHEAT,AIR TERMINAL SINGLE DUCT VAV REHEAT 36,COIL:HEATING:WATER,COIL HEATING WATER 37,AIR TERMINAL SINGLE DUCT VAV REHEAT 36 DAMPER OUTLET,NODE 232,Air Nodes
 Component Set,128,AIRTERMINAL:SINGLEDUCT:VAV:REHEAT,AIR TERMINAL SINGLE DUCT VAV REHEAT 37,COIL:HEATING:WATER,COIL HEATING WATER 38,AIR TERMINAL SINGLE DUCT VAV REHEAT 37 DAMPER OUTLET,NODE 237,Air Nodes
 Component Set,129,AIRTERMINAL:SINGLEDUCT:VAV:REHEAT,AIR TERMINAL SINGLE DUCT VAV REHEAT 38,COIL:HEATING:WATER,COIL HEATING WATER 39,AIR TERMINAL SINGLE DUCT VAV REHEAT 38 DAMPER OUTLET,NODE 242,Air Nodes
 Component Set,130,AIRTERMINAL:SINGLEDUCT:VAV:REHEAT,AIR TERMINAL SINGLE DUCT VAV REHEAT 39,COIL:HEATING:WATER,COIL HEATING WATER 40,AIR TERMINAL SINGLE DUCT VAV REHEAT 39 DAMPER OUTLET,NODE 247,Air Nodes
 Component Set,131,AIRTERMINAL:SINGLEDUCT:VAV:REHEAT,AIR TERMINAL SINGLE DUCT VAV REHEAT 40,COIL:HEATING:WATER,COIL HEATING WATER 41,AIR TERMINAL SINGLE DUCT VAV REHEAT 40 DAMPER OUTLET,NODE 252,Air Nodes
 Component Set,132,AIRTERMINAL:SINGLEDUCT:VAV:REHEAT,AIR TERMINAL SINGLE DUCT VAV REHEAT 41,COIL:HEATING:WATER,COIL HEATING WATER 42,AIR TERMINAL SINGLE DUCT VAV REHEAT 41 DAMPER OUTLET,NODE 257,Air Nodes
 Component Set,133,AIRLOOPHVAC:OUTDOORAIRSYSTEM,AIR LOOP HVAC OUTDOOR AIR SYSTEM 1,OUTDOORAIR:MIXER,OUTDOORAIR:MIXER {F3A2DEDD-ADE8-42D0-A05D-6D9C008756DC},NODE 46,NODE 48,Air Nodes
 Component Set,134,COILSYSTEM:COOLING:DX,COIL COOLING DX TWO SPEED 1 COILSYSTEM,COIL:COOLING:DX:TWOSPEED,COIL COOLING DX TWO SPEED 1,NODE 48,NODE 49,Air Nodes
! ===============================================================
! <# Plant Loops>,<Number of Plant Loops>
 #Plant Loops,1
! <Plant Loop>,<Plant Loop Name>,<Loop Type>,<Inlet Node Name>,<Outlet Node Name>,<Branch List>,<Connector List>
! <Plant Loop Connector>,<Connector Type>,<Connector Name>,<Loop Name>,<Loop Type>,<Number of Inlets/Outlets>
! <Plant Loop Connector Branches>,<Connector Node Count>,<Connector Type>,<Connector Name>,<Inlet Branch>,<Outlet Branch>,<Loop Name>,<Loop Type>
! <Plant Loop Connector Nodes>,<Connector Node Count>,<Connector Type>,<Connector Name>,<Inlet Node>,<Outlet Node>,<Loop Name>,<Loop Type>
! <Plant Loop Supply Connection>,<Plant Loop Name>,<Supply Side Outlet Node Name>,<Demand Side Inlet Node Name>
! <Plant Loop Return Connection>,<Plant Loop Name>,<Demand Side Outlet Node Name>,<Supply Side Inlet Node Name>
 Plant Loop,HOT WATER LOOP,Demand,NODE 54,NODE 55,HOT WATER LOOP DEMAND BRANCHES,HOT WATER LOOP DEMAND CONNECTOR LIST
   Plant Loop Connector,Splitter,HOT WATER LOOP DEMAND SPLITTER,HOT WATER LOOP,Demand,42
     Plant Loop Connector Branches,1,Splitter,HOT WATER LOOP DEMAND SPLITTER,HOT WATER LOOP DEMAND INLET BRANCH,HOT WATER LOOP DEMAND BRANCH 1,HOT WATER LOOP,Demand
     Plant Loop Connector Nodes,   1,Splitter,HOT WATER LOOP DEMAND SPLITTER,HOT WATER LOOP DEMAND INLET PIPE NODE,NODE 56,HOT WATER LOOP,Demand
     Plant Loop Connector Branches,2,Splitter,HOT WATER LOOP DEMAND SPLITTER,HOT WATER LOOP DEMAND INLET BRANCH,HOT WATER LOOP DEMAND BRANCH 2,HOT WATER LOOP,Demand
     Plant Loop Connector Nodes,   2,Splitter,HOT WATER LOOP DEMAND SPLITTER,HOT WATER LOOP DEMAND INLET PIPE NODE,NODE 65,HOT WATER LOOP,Demand
     Plant Loop Connector Branches,3,Splitter,HOT WATER LOOP DEMAND SPLITTER,HOT WATER LOOP DEMAND INLET BRANCH,HOT WATER LOOP DEMAND BRANCH 3,HOT WATER LOOP,Demand
     Plant Loop Connector Nodes,   3,Splitter,HOT WATER LOOP DEMAND SPLITTER,HOT WATER LOOP DEMAND INLET PIPE NODE,NODE 70,HOT WATER LOOP,Demand
     Plant Loop Connector Branches,4,Splitter,HOT WATER LOOP DEMAND SPLITTER,HOT WATER LOOP DEMAND INLET BRANCH,HOT WATER LOOP DEMAND BRANCH 4,HOT WATER LOOP,Demand
     Plant Loop Connector Nodes,   4,Splitter,HOT WATER LOOP DEMAND SPLITTER,HOT WATER LOOP DEMAND INLET PIPE NODE,NODE 75,HOT WATER LOOP,Demand
     Plant Loop Connector Branches,5,Splitter,HOT WATER LOOP DEMAND SPLITTER,HOT WATER LOOP DEMAND INLET BRANCH,HOT WATER LOOP DEMAND BRANCH 5,HOT WATER LOOP,Demand
     Plant Loop Connector Nodes,   5,Splitter,HOT WATER LOOP DEMAND SPLITTER,HOT WATER LOOP DEMAND INLET PIPE NODE,NODE 80,HOT WATER LOOP,Demand
     Plant Loop Connector Branches,6,Splitter,HOT WATER LOOP DEMAND SPLITTER,HOT WATER LOOP DEMAND INLET BRANCH,HOT WATER LOOP DEMAND BRANCH 6,HOT WATER LOOP,Demand
     Plant Loop Connector Nodes,   6,Splitter,HOT WATER LOOP DEMAND SPLITTER,HOT WATER LOOP DEMAND INLET PIPE NODE,NODE 85,HOT WATER LOOP,Demand
     Plant Loop Connector Branches,7,Splitter,HOT WATER LOOP DEMAND SPLITTER,HOT WATER LOOP DEMAND INLET BRANCH,HOT WATER LOOP DEMAND BRANCH 7,HOT WATER LOOP,Demand
     Plant Loop Connector Nodes,   7,Splitter,HOT WATER LOOP DEMAND SPLITTER,HOT WATER LOOP DEMAND INLET PIPE NODE,NODE 90,HOT WATER LOOP,Demand
     Plant Loop Connector Branches,8,Splitter,HOT WATER LOOP DEMAND SPLITTER,HOT WATER LOOP DEMAND INLET BRANCH,HOT WATER LOOP DEMAND BRANCH 8,HOT WATER LOOP,Demand
     Plant Loop Connector Nodes,   8,Splitter,HOT WATER LOOP DEMAND SPLITTER,HOT WATER LOOP DEMAND INLET PIPE NODE,NODE 95,HOT WATER LOOP,Demand
     Plant Loop Connector Branches,9,Splitter,HOT WATER LOOP DEMAND SPLITTER,HOT WATER LOOP DEMAND INLET BRANCH,HOT WATER LOOP DEMAND BRANCH 9,HOT WATER LOOP,Demand
     Plant Loop Connector Nodes,   9,Splitter,HOT WATER LOOP DEMAND SPLITTER,HOT WATER LOOP DEMAND INLET PIPE NODE,NODE 100,HOT WATER LOOP,Demand
     Plant Loop Connector Branches,10,Splitter,HOT WATER LOOP DEMAND SPLITTER,HOT WATER LOOP DEMAND INLET BRANCH,HOT WATER LOOP DEMAND BRANCH 10,HOT WATER LOOP,Demand
     Plant Loop Connector Nodes,   10,Splitter,HOT WATER LOOP DEMAND SPLITTER,HOT WATER LOOP DEMAND INLET PIPE NODE,NODE 105,HOT WATER LOOP,Demand
     Plant Loop Connector Branches,11,Splitter,HOT WATER LOOP DEMAND SPLITTER,HOT WATER LOOP DEMAND INLET BRANCH,HOT WATER LOOP DEMAND BRANCH 11,HOT WATER LOOP,Demand
     Plant Loop Connector Nodes,   11,Splitter,HOT WATER LOOP DEMAND SPLITTER,HOT WATER LOOP DEMAND INLET PIPE NODE,NODE 110,HOT WATER LOOP,Demand
     Plant Loop Connector Branches,12,Splitter,HOT WATER LOOP DEMAND SPLITTER,HOT WATER LOOP DEMAND INLET BRANCH,HOT WATER LOOP DEMAND BRANCH 12,HOT WATER LOOP,Demand
     Plant Loop Connector Nodes,   12,Splitter,HOT WATER LOOP DEMAND SPLITTER,HOT WATER LOOP DEMAND INLET PIPE NODE,NODE 115,HOT WATER LOOP,Demand
     Plant Loop Connector Branches,13,Splitter,HOT WATER LOOP DEMAND SPLITTER,HOT WATER LOOP DEMAND INLET BRANCH,HOT WATER LOOP DEMAND BRANCH 13,HOT WATER LOOP,Demand
     Plant Loop Connector Nodes,   13,Splitter,HOT WATER LOOP DEMAND SPLITTER,HOT WATER LOOP DEMAND INLET PIPE NODE,NODE 120,HOT WATER LOOP,Demand
     Plant Loop Connector Branches,14,Splitter,HOT WATER LOOP DEMAND SPLITTER,HOT WATER LOOP DEMAND INLET BRANCH,HOT WATER LOOP DEMAND BRANCH 14,HOT WATER LOOP,Demand
     Plant Loop Connector Nodes,   14,Splitter,HOT WATER LOOP DEMAND SPLITTER,HOT WATER LOOP DEMAND INLET PIPE NODE,NODE 125,HOT WATER LOOP,Demand
     Plant Loop Connector Branches,15,Splitter,HOT WATER LOOP DEMAND SPLITTER,HOT WATER LOOP DEMAND INLET BRANCH,HOT WATER LOOP DEMAND BRANCH 15,HOT WATER LOOP,Demand
     Plant Loop Connector Nodes,   15,Splitter,HOT WATER LOOP DEMAND SPLITTER,HOT WATER LOOP DEMAND INLET PIPE NODE,NODE 130,HOT WATER LOOP,Demand
     Plant Loop Connector Branches,16,Splitter,HOT WATER LOOP DEMAND SPLITTER,HOT WATER LOOP DEMAND INLET BRANCH,HOT WATER LOOP DEMAND BRANCH 16,HOT WATER LOOP,Demand
     Plant Loop Connector Nodes,   16,Splitter,HOT WATER LOOP DEMAND SPLITTER,HOT WATER LOOP DEMAND INLET PIPE NODE,NODE 135,HOT WATER LOOP,Demand
     Plant Loop Connector Branches,17,Splitter,HOT WATER LOOP DEMAND SPLITTER,HOT WATER LOOP DEMAND INLET BRANCH,HOT WATER LOOP DEMAND BRANCH 17,HOT WATER LOOP,Demand
     Plant Loop Connector Nodes,   17,Splitter,HOT WATER LOOP DEMAND SPLITTER,HOT WATER LOOP DEMAND INLET PIPE NODE,NODE 140,HOT WATER LOOP,Demand
     Plant Loop Connector Branches,18,Splitter,HOT WATER LOOP DEMAND SPLITTER,HOT WATER LOOP DEMAND INLET BRANCH,HOT WATER LOOP DEMAND BRANCH 18,HOT WATER LOOP,Demand
     Plant Loop Connector Nodes,   18,Splitter,HOT WATER LOOP DEMAND SPLITTER,HOT WATER LOOP DEMAND INLET PIPE NODE,NODE 145,HOT WATER LOOP,Demand
     Plant Loop Connector Branches,19,Splitter,HOT WATER LOOP DEMAND SPLITTER,HOT WATER LOOP DEMAND INLET BRANCH,HOT WATER LOOP DEMAND BRANCH 19,HOT WATER LOOP,Demand
     Plant Loop Connector Nodes,   19,Splitter,HOT WATER LOOP DEMAND SPLITTER,HOT WATER LOOP DEMAND INLET PIPE NODE,NODE 150,HOT WATER LOOP,Demand
     Plant Loop Connector Branches,20,Splitter,HOT WATER LOOP DEMAND SPLITTER,HOT WATER LOOP DEMAND INLET BRANCH,HOT WATER LOOP DEMAND BRANCH 20,HOT WATER LOOP,Demand
     Plant Loop Connector Nodes,   20,Splitter,HOT WATER LOOP DEMAND SPLITTER,HOT WATER LOOP DEMAND INLET PIPE NODE,NODE 155,HOT WATER LOOP,Demand
     Plant Loop Connector Branches,21,Splitter,HOT WATER LOOP DEMAND SPLITTER,HOT WATER LOOP DEMAND INLET BRANCH,HOT WATER LOOP DEMAND BRANCH 21,HOT WATER LOOP,Demand
     Plant Loop Connector Nodes,   21,Splitter,HOT WATER LOOP DEMAND SPLITTER,HOT WATER LOOP DEMAND INLET PIPE NODE,NODE 160,HOT WATER LOOP,Demand
     Plant Loop Connector Branches,22,Splitter,HOT WATER LOOP DEMAND SPLITTER,HOT WATER LOOP DEMAND INLET BRANCH,HOT WATER LOOP DEMAND BRANCH 22,HOT WATER LOOP,Demand
     Plant Loop Connector Nodes,   22,Splitter,HOT WATER LOOP DEMAND SPLITTER,HOT WATER LOOP DEMAND INLET PIPE NODE,NODE 165,HOT WATER LOOP,Demand
     Plant Loop Connector Branches,23,Splitter,HOT WATER LOOP DEMAND SPLITTER,HOT WATER LOOP DEMAND INLET BRANCH,HOT WATER LOOP DEMAND BRANCH 23,HOT WATER LOOP,Demand
     Plant Loop Connector Nodes,   23,Splitter,HOT WATER LOOP DEMAND SPLITTER,HOT WATER LOOP DEMAND INLET PIPE NODE,NODE 170,HOT WATER LOOP,Demand
     Plant Loop Connector Branches,24,Splitter,HOT WATER LOOP DEMAND SPLITTER,HOT WATER LOOP DEMAND INLET BRANCH,HOT WATER LOOP DEMAND BRANCH 24,HOT WATER LOOP,Demand
     Plant Loop Connector Nodes,   24,Splitter,HOT WATER LOOP DEMAND SPLITTER,HOT WATER LOOP DEMAND INLET PIPE NODE,NODE 175,HOT WATER LOOP,Demand
     Plant Loop Connector Branches,25,Splitter,HOT WATER LOOP DEMAND SPLITTER,HOT WATER LOOP DEMAND INLET BRANCH,HOT WATER LOOP DEMAND BRANCH 25,HOT WATER LOOP,Demand
     Plant Loop Connector Nodes,   25,Splitter,HOT WATER LOOP DEMAND SPLITTER,HOT WATER LOOP DEMAND INLET PIPE NODE,NODE 180,HOT WATER LOOP,Demand
     Plant Loop Connector Branches,26,Splitter,HOT WATER LOOP DEMAND SPLITTER,HOT WATER LOOP DEMAND INLET BRANCH,HOT WATER LOOP DEMAND BRANCH 26,HOT WATER LOOP,Demand
     Plant Loop Connector Nodes,   26,Splitter,HOT WATER LOOP DEMAND SPLITTER,HOT WATER LOOP DEMAND INLET PIPE NODE,NODE 185,HOT WATER LOOP,Demand
     Plant Loop Connector Branches,27,Splitter,HOT WATER LOOP DEMAND SPLITTER,HOT WATER LOOP DEMAND INLET BRANCH,HOT WATER LOOP DEMAND BRANCH 27,HOT WATER LOOP,Demand
     Plant Loop Connector Nodes,   27,Splitter,HOT WATER LOOP DEMAND SPLITTER,HOT WATER LOOP DEMAND INLET PIPE NODE,NODE 190,HOT WATER LOOP,Demand
     Plant Loop Connector Branches,28,Splitter,HOT WATER LOOP DEMAND SPLITTER,HOT WATER LOOP DEMAND INLET BRANCH,HOT WATER LOOP DEMAND BRANCH 28,HOT WATER LOOP,Demand
     Plant Loop Connector Nodes,   28,Splitter,HOT WATER LOOP DEMAND SPLITTER,HOT WATER LOOP DEMAND INLET PIPE NODE,NODE 195,HOT WATER LOOP,Demand
     Plant Loop Connector Branches,29,Splitter,HOT WATER LOOP DEMAND SPLITTER,HOT WATER LOOP DEMAND INLET BRANCH,HOT WATER LOOP DEMAND BRANCH 29,HOT WATER LOOP,Demand
     Plant Loop Connector Nodes,   29,Splitter,HOT WATER LOOP DEMAND SPLITTER,HOT WATER LOOP DEMAND INLET PIPE NODE,NODE 200,HOT WATER LOOP,Demand
     Plant Loop Connector Branches,30,Splitter,HOT WATER LOOP DEMAND SPLITTER,HOT WATER LOOP DEMAND INLET BRANCH,HOT WATER LOOP DEMAND BRANCH 30,HOT WATER LOOP,Demand
     Plant Loop Connector Nodes,   30,Splitter,HOT WATER LOOP DEMAND SPLITTER,HOT WATER LOOP DEMAND INLET PIPE NODE,NODE 205,HOT WATER LOOP,Demand
     Plant Loop Connector Branches,31,Splitter,HOT WATER LOOP DEMAND SPLITTER,HOT WATER LOOP DEMAND INLET BRANCH,HOT WATER LOOP DEMAND BRANCH 31,HOT WATER LOOP,Demand
     Plant Loop Connector Nodes,   31,Splitter,HOT WATER LOOP DEMAND SPLITTER,HOT WATER LOOP DEMAND INLET PIPE NODE,NODE 210,HOT WATER LOOP,Demand
     Plant Loop Connector Branches,32,Splitter,HOT WATER LOOP DEMAND SPLITTER,HOT WATER LOOP DEMAND INLET BRANCH,HOT WATER LOOP DEMAND BRANCH 32,HOT WATER LOOP,Demand
     Plant Loop Connector Nodes,   32,Splitter,HOT WATER LOOP DEMAND SPLITTER,HOT WATER LOOP DEMAND INLET PIPE NODE,NODE 215,HOT WATER LOOP,Demand
     Plant Loop Connector Branches,33,Splitter,HOT WATER LOOP DEMAND SPLITTER,HOT WATER LOOP DEMAND INLET BRANCH,HOT WATER LOOP DEMAND BRANCH 33,HOT WATER LOOP,Demand
     Plant Loop Connector Nodes,   33,Splitter,HOT WATER LOOP DEMAND SPLITTER,HOT WATER LOOP DEMAND INLET PIPE NODE,NODE 220,HOT WATER LOOP,Demand
     Plant Loop Connector Branches,34,Splitter,HOT WATER LOOP DEMAND SPLITTER,HOT WATER LOOP DEMAND INLET BRANCH,HOT WATER LOOP DEMAND BRANCH 34,HOT WATER LOOP,Demand
     Plant Loop Connector Nodes,   34,Splitter,HOT WATER LOOP DEMAND SPLITTER,HOT WATER LOOP DEMAND INLET PIPE NODE,NODE 225,HOT WATER LOOP,Demand
     Plant Loop Connector Branches,35,Splitter,HOT WATER LOOP DEMAND SPLITTER,HOT WATER LOOP DEMAND INLET BRANCH,HOT WATER LOOP DEMAND BRANCH 35,HOT WATER LOOP,Demand
     Plant Loop Connector Nodes,   35,Splitter,HOT WATER LOOP DEMAND SPLITTER,HOT WATER LOOP DEMAND INLET PIPE NODE,NODE 230,HOT WATER LOOP,Demand
     Plant Loop Connector Branches,36,Splitter,HOT WATER LOOP DEMAND SPLITTER,HOT WATER LOOP DEMAND INLET BRANCH,HOT WATER LOOP DEMAND BRANCH 36,HOT WATER LOOP,Demand
     Plant Loop Connector Nodes,   36,Splitter,HOT WATER LOOP DEMAND SPLITTER,HOT WATER LOOP DEMAND INLET PIPE NODE,NODE 235,HOT WATER LOOP,Demand
     Plant Loop Connector Branches,37,Splitter,HOT WATER LOOP DEMAND SPLITTER,HOT WATER LOOP DEMAND INLET BRANCH,HOT WATER LOOP DEMAND BRANCH 37,HOT WATER LOOP,Demand
     Plant Loop Connector Nodes,   37,Splitter,HOT WATER LOOP DEMAND SPLITTER,HOT WATER LOOP DEMAND INLET PIPE NODE,NODE 240,HOT WATER LOOP,Demand
     Plant Loop Connector Branches,38,Splitter,HOT WATER LOOP DEMAND SPLITTER,HOT WATER LOOP DEMAND INLET BRANCH,HOT WATER LOOP DEMAND BRANCH 38,HOT WATER LOOP,Demand
     Plant Loop Connector Nodes,   38,Splitter,HOT WATER LOOP DEMAND SPLITTER,HOT WATER LOOP DEMAND INLET PIPE NODE,NODE 245,HOT WATER LOOP,Demand
     Plant Loop Connector Branches,39,Splitter,HOT WATER LOOP DEMAND SPLITTER,HOT WATER LOOP DEMAND INLET BRANCH,HOT WATER LOOP DEMAND BRANCH 39,HOT WATER LOOP,Demand
     Plant Loop Connector Nodes,   39,Splitter,HOT WATER LOOP DEMAND SPLITTER,HOT WATER LOOP DEMAND INLET PIPE NODE,NODE 250,HOT WATER LOOP,Demand
     Plant Loop Connector Branches,40,Splitter,HOT WATER LOOP DEMAND SPLITTER,HOT WATER LOOP DEMAND INLET BRANCH,HOT WATER LOOP DEMAND BRANCH 40,HOT WATER LOOP,Demand
     Plant Loop Connector Nodes,   40,Splitter,HOT WATER LOOP DEMAND SPLITTER,HOT WATER LOOP DEMAND INLET PIPE NODE,NODE 255,HOT WATER LOOP,Demand
     Plant Loop Connector Branches,41,Splitter,HOT WATER LOOP DEMAND SPLITTER,HOT WATER LOOP DEMAND INLET BRANCH,HOT WATER LOOP DEMAND BRANCH 41,HOT WATER LOOP,Demand
     Plant Loop Connector Nodes,   41,Splitter,HOT WATER LOOP DEMAND SPLITTER,HOT WATER LOOP DEMAND INLET PIPE NODE,NODE 260,HOT WATER LOOP,Demand
     Plant Loop Connector Branches,42,Splitter,HOT WATER LOOP DEMAND SPLITTER,HOT WATER LOOP DEMAND INLET BRANCH,HOT WATER LOOP DEMAND BYPASS BRANCH,HOT WATER LOOP,Demand
     Plant Loop Connector Nodes,   42,Splitter,HOT WATER LOOP DEMAND SPLITTER,HOT WATER LOOP DEMAND INLET PIPE NODE,HOT WATER LOOP DEMAND BYPASS PIPE INLET NODE,HOT WATER LOOP,Demand
   Plant Loop Connector,Mixer,HOT WATER LOOP DEMAND MIXER,HOT WATER LOOP,Demand,42
     Plant Loop Connector Branches,1,Mixer,HOT WATER LOOP DEMAND MIXER,HOT WATER LOOP DEMAND BRANCH 1,HOT WATER LOOP DEMAND OUTLET BRANCH,HOT WATER LOOP,Demand
     Plant Loop Connector Nodes,   1,Mixer,HOT WATER LOOP DEMAND MIXER,NODE 62,HOT WATER LOOP DEMAND OUTLET PIPE NODE,HOT WATER LOOP,Demand
     Plant Loop Connector Branches,2,Mixer,HOT WATER LOOP DEMAND MIXER,HOT WATER LOOP DEMAND BRANCH 2,HOT WATER LOOP DEMAND OUTLET BRANCH,HOT WATER LOOP,Demand
     Plant Loop Connector Nodes,   2,Mixer,HOT WATER LOOP DEMAND MIXER,NODE 66,HOT WATER LOOP DEMAND OUTLET PIPE NODE,HOT WATER LOOP,Demand
     Plant Loop Connector Branches,3,Mixer,HOT WATER LOOP DEMAND MIXER,HOT WATER LOOP DEMAND BRANCH 3,HOT WATER LOOP DEMAND OUTLET BRANCH,HOT WATER LOOP,Demand
     Plant Loop Connector Nodes,   3,Mixer,HOT WATER LOOP DEMAND MIXER,NODE 71,HOT WATER LOOP DEMAND OUTLET PIPE NODE,HOT WATER LOOP,Demand
     Plant Loop Connector Branches,4,Mixer,HOT WATER LOOP DEMAND MIXER,HOT WATER LOOP DEMAND BRANCH 4,HOT WATER LOOP DEMAND OUTLET BRANCH,HOT WATER LOOP,Demand
     Plant Loop Connector Nodes,   4,Mixer,HOT WATER LOOP DEMAND MIXER,NODE 76,HOT WATER LOOP DEMAND OUTLET PIPE NODE,HOT WATER LOOP,Demand
     Plant Loop Connector Branches,5,Mixer,HOT WATER LOOP DEMAND MIXER,HOT WATER LOOP DEMAND BRANCH 5,HOT WATER LOOP DEMAND OUTLET BRANCH,HOT WATER LOOP,Demand
     Plant Loop Connector Nodes,   5,Mixer,HOT WATER LOOP DEMAND MIXER,NODE 81,HOT WATER LOOP DEMAND OUTLET PIPE NODE,HOT WATER LOOP,Demand
     Plant Loop Connector Branches,6,Mixer,HOT WATER LOOP DEMAND MIXER,HOT WATER LOOP DEMAND BRANCH 6,HOT WATER LOOP DEMAND OUTLET BRANCH,HOT WATER LOOP,Demand
     Plant Loop Connector Nodes,   6,Mixer,HOT WATER LOOP DEMAND MIXER,NODE 86,HOT WATER LOOP DEMAND OUTLET PIPE NODE,HOT WATER LOOP,Demand
     Plant Loop Connector Branches,7,Mixer,HOT WATER LOOP DEMAND MIXER,HOT WATER LOOP DEMAND BRANCH 7,HOT WATER LOOP DEMAND OUTLET BRANCH,HOT WATER LOOP,Demand
     Plant Loop Connector Nodes,   7,Mixer,HOT WATER LOOP DEMAND MIXER,NODE 91,HOT WATER LOOP DEMAND OUTLET PIPE NODE,HOT WATER LOOP,Demand
     Plant Loop Connector Branches,8,Mixer,HOT WATER LOOP DEMAND MIXER,HOT WATER LOOP DEMAND BRANCH 8,HOT WATER LOOP DEMAND OUTLET BRANCH,HOT WATER LOOP,Demand
     Plant Loop Connector Nodes,   8,Mixer,HOT WATER LOOP DEMAND MIXER,NODE 96,HOT WATER LOOP DEMAND OUTLET PIPE NODE,HOT WATER LOOP,Demand
     Plant Loop Connector Branches,9,Mixer,HOT WATER LOOP DEMAND MIXER,HOT WATER LOOP DEMAND BRANCH 9,HOT WATER LOOP DEMAND OUTLET BRANCH,HOT WATER LOOP,Demand
     Plant Loop Connector Nodes,   9,Mixer,HOT WATER LOOP DEMAND MIXER,NODE 101,HOT WATER LOOP DEMAND OUTLET PIPE NODE,HOT WATER LOOP,Demand
     Plant Loop Connector Branches,10,Mixer,HOT WATER LOOP DEMAND MIXER,HOT WATER LOOP DEMAND BRANCH 10,HOT WATER LOOP DEMAND OUTLET BRANCH,HOT WATER LOOP,Demand
     Plant Loop Connector Nodes,   10,Mixer,HOT WATER LOOP DEMAND MIXER,NODE 106,HOT WATER LOOP DEMAND OUTLET PIPE NODE,HOT WATER LOOP,Demand
     Plant Loop Connector Branches,11,Mixer,HOT WATER LOOP DEMAND MIXER,HOT WATER LOOP DEMAND BRANCH 11,HOT WATER LOOP DEMAND OUTLET BRANCH,HOT WATER LOOP,Demand
     Plant Loop Connector Nodes,   11,Mixer,HOT WATER LOOP DEMAND MIXER,NODE 111,HOT WATER LOOP DEMAND OUTLET PIPE NODE,HOT WATER LOOP,Demand
     Plant Loop Connector Branches,12,Mixer,HOT WATER LOOP DEMAND MIXER,HOT WATER LOOP DEMAND BRANCH 12,HOT WATER LOOP DEMAND OUTLET BRANCH,HOT WATER LOOP,Demand
     Plant Loop Connector Nodes,   12,Mixer,HOT WATER LOOP DEMAND MIXER,NODE 116,HOT WATER LOOP DEMAND OUTLET PIPE NODE,HOT WATER LOOP,Demand
     Plant Loop Connector Branches,13,Mixer,HOT WATER LOOP DEMAND MIXER,HOT WATER LOOP DEMAND BRANCH 13,HOT WATER LOOP DEMAND OUTLET BRANCH,HOT WATER LOOP,Demand
     Plant Loop Connector Nodes,   13,Mixer,HOT WATER LOOP DEMAND MIXER,NODE 121,HOT WATER LOOP DEMAND OUTLET PIPE NODE,HOT WATER LOOP,Demand
     Plant Loop Connector Branches,14,Mixer,HOT WATER LOOP DEMAND MIXER,HOT WATER LOOP DEMAND BRANCH 14,HOT WATER LOOP DEMAND OUTLET BRANCH,HOT WATER LOOP,Demand
[...]
 Non-Parent Node Connection,NODE 217,COIL:HEATING:WATER,COIL HEATING WATER 34,Outlet,1
 Non-Parent Node Connection,NODE 225,COIL:HEATING:WATER,COIL HEATING WATER 35,Inlet,2
 Non-Parent Node Connection,NODE 226,COIL:HEATING:WATER,COIL HEATING WATER 35,Outlet,2
 Non-Parent Node Connection,AIR TERMINAL SINGLE DUCT VAV REHEAT 34 DAMPER OUTLET,COIL:HEATING:WATER,COIL HEATING WATER 35,Inlet,1
 Non-Parent Node Connection,NODE 222,COIL:HEATING:WATER,COIL HEATING WATER 35,Outlet,1
 Non-Parent Node Connection,NODE 230,COIL:HEATING:WATER,COIL HEATING WATER 36,Inlet,2
 Non-Parent Node Connection,NODE 231,COIL:HEATING:WATER,COIL HEATING WATER 36,Outlet,2
 Non-Parent Node Connection,AIR TERMINAL SINGLE DUCT VAV REHEAT 35 DAMPER OUTLET,COIL:HEATING:WATER,COIL HEATING WATER 36,Inlet,1
 Non-Parent Node Connection,NODE 227,COIL:HEATING:WATER,COIL HEATING WATER 36,Outlet,1
 Non-Parent Node Connection,NODE 235,COIL:HEATING:WATER,COIL HEATING WATER 37,Inlet,2
 Non-Parent Node Connection,NODE 236,COIL:HEATING:WATER,COIL HEATING WATER 37,Outlet,2
 Non-Parent Node Connection,AIR TERMINAL SINGLE DUCT VAV REHEAT 36 DAMPER OUTLET,COIL:HEATING:WATER,COIL HEATING WATER 37,Inlet,1
 Non-Parent Node Connection,NODE 232,COIL:HEATING:WATER,COIL HEATING WATER 37,Outlet,1
 Non-Parent Node Connection,NODE 240,COIL:HEATING:WATER,COIL HEATING WATER 38,Inlet,2
 Non-Parent Node Connection,NODE 241,COIL:HEATING:WATER,COIL HEATING WATER 38,Outlet,2
 Non-Parent Node Connection,AIR TERMINAL SINGLE DUCT VAV REHEAT 37 DAMPER OUTLET,COIL:HEATING:WATER,COIL HEATING WATER 38,Inlet,1
 Non-Parent Node Connection,NODE 237,COIL:HEATING:WATER,COIL HEATING WATER 38,Outlet,1
 Non-Parent Node Connection,NODE 245,COIL:HEATING:WATER,COIL HEATING WATER 39,Inlet,2
 Non-Parent Node Connection,NODE 246,COIL:HEATING:WATER,COIL HEATING WATER 39,Outlet,2
 Non-Parent Node Connection,AIR TERMINAL SINGLE DUCT VAV REHEAT 38 DAMPER OUTLET,COIL:HEATING:WATER,COIL HEATING WATER 39,Inlet,1
 Non-Parent Node Connection,NODE 242,COIL:HEATING:WATER,COIL HEATING WATER 39,Outlet,1
 Non-Parent Node Connection,NODE 250,COIL:HEATING:WATER,COIL HEATING WATER 40,Inlet,2
 Non-Parent Node Connection,NODE 251,COIL:HEATING:WATER,COIL HEATING WATER 40,Outlet,2
 Non-Parent Node Connection,AIR TERMINAL SINGLE DUCT VAV REHEAT 39 DAMPER OUTLET,COIL:HEATING:WATER,COIL HEATING WATER 40,Inlet,1
 Non-Parent Node Connection,NODE 247,COIL:HEATING:WATER,COIL HEATING WATER 40,Outlet,1
 Non-Parent Node Connection,NODE 255,COIL:HEATING:WATER,COIL HEATING WATER 41,Inlet,2
 Non-Parent Node Connection,NODE 256,COIL:HEATING:WATER,COIL HEATING WATER 41,Outlet,2
 Non-Parent Node Connection,AIR TERMINAL SINGLE DUCT VAV REHEAT 40 DAMPER OUTLET,COIL:HEATING:WATER,COIL HEATING WATER 41,Inlet,1
 Non-Parent Node Connection,NODE 252,COIL:HEATING:WATER,COIL HEATING WATER 41,Outlet,1
 Non-Parent Node Connection,NODE 260,COIL:HEATING:WATER,COIL HEATING WATER 42,Inlet,2
 Non-Parent Node Connection,NODE 261,COIL:HEATING:WATER,COIL HEATING WATER 42,Outlet,2
 Non-Parent Node Connection,AIR TERMINAL SINGLE DUCT VAV REHEAT 41 DAMPER OUTLET,COIL:HEATING:WATER,COIL HEATING WATER 42,Inlet,1
 Non-Parent Node Connection,NODE 257,COIL:HEATING:WATER,COIL HEATING WATER 42,Outlet,1
 Non-Parent Node Connection,AIR TERMINAL SINGLE DUCT VAV REHEAT 3 DAMPER OUTLET,AIRTERMINAL:SINGLEDUCT:VAV:REHEAT,AIR TERMINAL SINGLE DUCT VAV REHEAT 3,Outlet,1
 Non-Parent Node Connection,NODE 69,AIRTERMINAL:SINGLEDUCT:VAV:REHEAT,AIR TERMINAL SINGLE DUCT VAV REHEAT 3,Inlet,1
 Non-Parent Node Connection,AIR TERMINAL SINGLE DUCT VAV REHEAT 4 DAMPER OUTLET,AIRTERMINAL:SINGLEDUCT:VAV:REHEAT,AIR TERMINAL SINGLE DUCT VAV REHEAT 4,Outlet,1
 Non-Parent Node Connection,NODE 74,AIRTERMINAL:SINGLEDUCT:VAV:REHEAT,AIR TERMINAL SINGLE DUCT VAV REHEAT 4,Inlet,1
 Non-Parent Node Connection,AIR TERMINAL SINGLE DUCT VAV REHEAT 5 DAMPER OUTLET,AIRTERMINAL:SINGLEDUCT:VAV:REHEAT,AIR TERMINAL SINGLE DUCT VAV REHEAT 5,Outlet,1
 Non-Parent Node Connection,NODE 79,AIRTERMINAL:SINGLEDUCT:VAV:REHEAT,AIR TERMINAL SINGLE DUCT VAV REHEAT 5,Inlet,1
 Non-Parent Node Connection,AIR TERMINAL SINGLE DUCT VAV REHEAT 6 DAMPER OUTLET,AIRTERMINAL:SINGLEDUCT:VAV:REHEAT,AIR TERMINAL SINGLE DUCT VAV REHEAT 6,Outlet,1
 Non-Parent Node Connection,NODE 84,AIRTERMINAL:SINGLEDUCT:VAV:REHEAT,AIR TERMINAL SINGLE DUCT VAV REHEAT 6,Inlet,1
 Non-Parent Node Connection,AIR TERMINAL SINGLE DUCT VAV REHEAT 7 DAMPER OUTLET,AIRTERMINAL:SINGLEDUCT:VAV:REHEAT,AIR TERMINAL SINGLE DUCT VAV REHEAT 7,Outlet,1
 Non-Parent Node Connection,NODE 89,AIRTERMINAL:SINGLEDUCT:VAV:REHEAT,AIR TERMINAL SINGLE DUCT VAV REHEAT 7,Inlet,1
 Non-Parent Node Connection,AIR TERMINAL SINGLE DUCT VAV REHEAT 8 DAMPER OUTLET,AIRTERMINAL:SINGLEDUCT:VAV:REHEAT,AIR TERMINAL SINGLE DUCT VAV REHEAT 8,Outlet,1
 Non-Parent Node Connection,NODE 94,AIRTERMINAL:SINGLEDUCT:VAV:REHEAT,AIR TERMINAL SINGLE DUCT VAV REHEAT 8,Inlet,1
 Non-Parent Node Connection,AIR TERMINAL SINGLE DUCT VAV REHEAT 9 DAMPER OUTLET,AIRTERMINAL:SINGLEDUCT:VAV:REHEAT,AIR TERMINAL SINGLE DUCT VAV REHEAT 9,Outlet,1
 Non-Parent Node Connection,NODE 99,AIRTERMINAL:SINGLEDUCT:VAV:REHEAT,AIR TERMINAL SINGLE DUCT VAV REHEAT 9,Inlet,1
 Non-Parent Node Connection,AIR TERMINAL SINGLE DUCT VAV REHEAT 10 DAMPER OUTLET,AIRTERMINAL:SINGLEDUCT:VAV:REHEAT,AIR TERMINAL SINGLE DUCT VAV REHEAT 10,Outlet,1
 Non-Parent Node Connection,NODE 104,AIRTERMINAL:SINGLEDUCT:VAV:REHEAT,AIR TERMINAL SINGLE DUCT VAV REHEAT 10,Inlet,1
 Non-Parent Node Connection,AIR TERMINAL SINGLE DUCT VAV REHEAT 11 DAMPER OUTLET,AIRTERMINAL:SINGLEDUCT:VAV:REHEAT,AIR TERMINAL SINGLE DUCT VAV REHEAT 11,Outlet,1
 Non-Parent Node Connection,NODE 109,AIRTERMINAL:SINGLEDUCT:VAV:REHEAT,AIR TERMINAL SINGLE DUCT VAV REHEAT 11,Inlet,1
 Non-Parent Node Connection,AIR TERMINAL SINGLE DUCT VAV REHEAT 12 DAMPER OUTLET,AIRTERMINAL:SINGLEDUCT:VAV:REHEAT,AIR TERMINAL SINGLE DUCT VAV REHEAT 12,Outlet,1
 Non-Parent Node Connection,NODE 114,AIRTERMINAL:SINGLEDUCT:VAV:REHEAT,AIR TERMINAL SINGLE DUCT VAV REHEAT 12,Inlet,1
 Non-Parent Node Connection,AIR TERMINAL SINGLE DUCT VAV REHEAT 13 DAMPER OUTLET,AIRTERMINAL:SINGLEDUCT:VAV:REHEAT,AIR TERMINAL SINGLE DUCT VAV REHEAT 13,Outlet,1
 Non-Parent Node Connection,NODE 119,AIRTERMINAL:SINGLEDUCT:VAV:REHEAT,AIR TERMINAL SINGLE DUCT VAV REHEAT 13,Inlet,1
 Non-Parent Node Connection,AIR TERMINAL SINGLE DUCT VAV REHEAT 14 DAMPER OUTLET,AIRTERMINAL:SINGLEDUCT:VAV:REHEAT,AIR TERMINAL SINGLE DUCT VAV REHEAT 14,Outlet,1
 Non-Parent Node Connection,NODE 124,AIRTERMINAL:SINGLEDUCT:VAV:REHEAT,AIR TERMINAL SINGLE DUCT VAV REHEAT 14,Inlet,1
 Non-Parent Node Connection,AIR TERMINAL SINGLE DUCT VAV REHEAT 15 DAMPER OUTLET,AIRTERMINAL:SINGLEDUCT:VAV:REHEAT,AIR TERMINAL SINGLE DUCT VAV REHEAT 15,Outlet,1
 Non-Parent Node Connection,NODE 129,AIRTERMINAL:SINGLEDUCT:VAV:REHEAT,AIR TERMINAL SINGLE DUCT VAV REHEAT 15,Inlet,1
 Non-Parent Node Connection,AIR TERMINAL SINGLE DUCT VAV REHEAT 16 DAMPER OUTLET,AIRTERMINAL:SINGLEDUCT:VAV:REHEAT,AIR TERMINAL SINGLE DUCT VAV REHEAT 16,Outlet,1
 Non-Parent Node Connection,NODE 134,AIRTERMINAL:SINGLEDUCT:VAV:REHEAT,AIR TERMINAL SINGLE DUCT VAV REHEAT 16,Inlet,1
 Non-Parent Node Connection,AIR TERMINAL SINGLE DUCT VAV REHEAT 17 DAMPER OUTLET,AIRTERMINAL:SINGLEDUCT:VAV:REHEAT,AIR TERMINAL SINGLE DUCT VAV REHEAT 17,Outlet,1
 Non-Parent Node Connection,NODE 139,AIRTERMINAL:SINGLEDUCT:VAV:REHEAT,AIR TERMINAL SINGLE DUCT VAV REHEAT 17,Inlet,1
 Non-Parent Node Connection,AIR TERMINAL SINGLE DUCT VAV REHEAT 18 DAMPER OUTLET,AIRTERMINAL:SINGLEDUCT:VAV:REHEAT,AIR TERMINAL SINGLE DUCT VAV REHEAT 18,Outlet,1
 Non-Parent Node Connection,NODE 144,AIRTERMINAL:SINGLEDUCT:VAV:REHEAT,AIR TERMINAL SINGLE DUCT VAV REHEAT 18,Inlet,1
 Non-Parent Node Connection,AIR TERMINAL SINGLE DUCT VAV REHEAT 19 DAMPER OUTLET,AIRTERMINAL:SINGLEDUCT:VAV:REHEAT,AIR TERMINAL SINGLE DUCT VAV REHEAT 19,Outlet,1
 Non-Parent Node Connection,NODE 149,AIRTERMINAL:SINGLEDUCT:VAV:REHEAT,AIR TERMINAL SINGLE DUCT VAV REHEAT 19,Inlet,1
 Non-Parent Node Connection,AIR TERMINAL SINGLE DUCT VAV REHEAT 20 DAMPER OUTLET,AIRTERMINAL:SINGLEDUCT:VAV:REHEAT,AIR TERMINAL SINGLE DUCT VAV REHEAT 20,Outlet,1
 Non-Parent Node Connection,NODE 154,AIRTERMINAL:SINGLEDUCT:VAV:REHEAT,AIR TERMINAL SINGLE DUCT VAV REHEAT 20,Inlet,1
 Non-Parent Node Connection,AIR TERMINAL SINGLE DUCT VAV REHEAT 21 DAMPER OUTLET,AIRTERMINAL:SINGLEDUCT:VAV:REHEAT,AIR TERMINAL SINGLE DUCT VAV REHEAT 21,Outlet,1
 Non-Parent Node Connection,NODE 159,AIRTERMINAL:SINGLEDUCT:VAV:REHEAT,AIR TERMINAL SINGLE DUCT VAV REHEAT 21,Inlet,1
 Non-Parent Node Connection,AIR TERMINAL SINGLE DUCT VAV REHEAT 22 DAMPER OUTLET,AIRTERMINAL:SINGLEDUCT:VAV:REHEAT,AIR TERMINAL SINGLE DUCT VAV REHEAT 22,Outlet,1
 Non-Parent Node Connection,NODE 164,AIRTERMINAL:SINGLEDUCT:VAV:REHEAT,AIR TERMINAL SINGLE DUCT VAV REHEAT 22,Inlet,1
 Non-Parent Node Connection,AIR TERMINAL SINGLE DUCT VAV REHEAT 23 DAMPER OUTLET,AIRTERMINAL:SINGLEDUCT:VAV:REHEAT,AIR TERMINAL SINGLE DUCT VAV REHEAT 23,Outlet,1
 Non-Parent Node Connection,NODE 169,AIRTERMINAL:SINGLEDUCT:VAV:REHEAT,AIR TERMINAL SINGLE DUCT VAV REHEAT 23,Inlet,1
 Non-Parent Node Connection,AIR TERMINAL SINGLE DUCT VAV REHEAT 24 DAMPER OUTLET,AIRTERMINAL:SINGLEDUCT:VAV:REHEAT,AIR TERMINAL SINGLE DUCT VAV REHEAT 24,Outlet,1
 Non-Parent Node Connection,NODE 174,AIRTERMINAL:SINGLEDUCT:VAV:REHEAT,AIR TERMINAL SINGLE DUCT VAV REHEAT 24,Inlet,1
 Non-Parent Node Connection,AIR TERMINAL SINGLE DUCT VAV REHEAT 25 DAMPER OUTLET,AIRTERMINAL:SINGLEDUCT:VAV:REHEAT,AIR TERMINAL SINGLE DUCT VAV REHEAT 25,Outlet,1
 Non-Parent Node Connection,NODE 179,AIRTERMINAL:SINGLEDUCT:VAV:REHEAT,AIR TERMINAL SINGLE DUCT VAV REHEAT 25,Inlet,1
 Non-Parent Node Connection,AIR TERMINAL SINGLE DUCT VAV REHEAT 26 DAMPER OUTLET,AIRTERMINAL:SINGLEDUCT:VAV:REHEAT,AIR TERMINAL SINGLE DUCT VAV REHEAT 26,Outlet,1
 Non-Parent Node Connection,NODE 184,AIRTERMINAL:SINGLEDUCT:VAV:REHEAT,AIR TERMINAL SINGLE DUCT VAV REHEAT 26,Inlet,1
 Non-Parent Node Connection,AIR TERMINAL SINGLE DUCT VAV REHEAT 27 DAMPER OUTLET,AIRTERMINAL:SINGLEDUCT:VAV:REHEAT,AIR TERMINAL SINGLE DUCT VAV REHEAT 27,Outlet,1
 Non-Parent Node Connection,NODE 189,AIRTERMINAL:SINGLEDUCT:VAV:REHEAT,AIR TERMINAL SINGLE DUCT VAV REHEAT 27,Inlet,1
 Non-Parent Node Connection,AIR TERMINAL SINGLE DUCT VAV REHEAT 28 DAMPER OUTLET,AIRTERMINAL:SINGLEDUCT:VAV:REHEAT,AIR TERMINAL SINGLE DUCT VAV REHEAT 28,Outlet,1
 Non-Parent Node Connection,NODE 194,AIRTERMINAL:SINGLEDUCT:VAV:REHEAT,AIR TERMINAL SINGLE DUCT VAV REHEAT 28,Inlet,1
 Non-Parent Node Connection,AIR TERMINAL SINGLE DUCT VAV REHEAT 29 DAMPER OUTLET,AIRTERMINAL:SINGLEDUCT:VAV:REHEAT,AIR TERMINAL SINGLE DUCT VAV REHEAT 29,Outlet,1
 Non-Parent Node Connection,NODE 199,AIRTERMINAL:SINGLEDUCT:VAV:REHEAT,AIR TERMINAL SINGLE DUCT VAV REHEAT 29,Inlet,1
 Non-Parent Node Connection,AIR TERMINAL SINGLE DUCT VAV REHEAT 30 DAMPER OUTLET,AIRTERMINAL:SINGLEDUCT:VAV:REHEAT,AIR TERMINAL SINGLE DUCT VAV REHEAT 30,Outlet,1
 Non-Parent Node Connection,NODE 204,AIRTERMINAL:SINGLEDUCT:VAV:REHEAT,AIR TERMINAL SINGLE DUCT VAV REHEAT 30,Inlet,1
 Non-Parent Node Connection,AIR TERMINAL SINGLE DUCT VAV REHEAT 31 DAMPER OUTLET,AIRTERMINAL:SINGLEDUCT:VAV:REHEAT,AIR TERMINAL SINGLE DUCT VAV REHEAT 31,Outlet,1
 Non-Parent Node Connection,NODE 209,AIRTERMINAL:SINGLEDUCT:VAV:REHEAT,AIR TERMINAL SINGLE DUCT VAV REHEAT 31,Inlet,1
 Non-Parent Node Connection,AIR TERMINAL SINGLE DUCT VAV REHEAT 32 DAMPER OUTLET,AIRTERMINAL:SINGLEDUCT:VAV:REHEAT,AIR TERMINAL SINGLE DUCT VAV REHEAT 32,Outlet,1
 Non-Parent Node Connection,NODE 214,AIRTERMINAL:SINGLEDUCT:VAV:REHEAT,AIR TERMINAL SINGLE DUCT VAV REHEAT 32,Inlet,1
 Non-Parent Node Connection,AIR TERMINAL SINGLE DUCT VAV REHEAT 33 DAMPER OUTLET,AIRTERMINAL:SINGLEDUCT:VAV:REHEAT,AIR TERMINAL SINGLE DUCT VAV REHEAT 33,Outlet,1
 Non-Parent Node Connection,NODE 219,AIRTERMINAL:SINGLEDUCT:VAV:REHEAT,AIR TERMINAL SINGLE DUCT VAV REHEAT 33,Inlet,1
 Non-Parent Node Connection,AIR TERMINAL SINGLE DUCT VAV REHEAT 34 DAMPER OUTLET,AIRTERMINAL:SINGLEDUCT:VAV:REHEAT,AIR TERMINAL SINGLE DUCT VAV REHEAT 34,Outlet,1
 Non-Parent Node Connection,NODE 224,AIRTERMINAL:SINGLEDUCT:VAV:REHEAT,AIR TERMINAL SINGLE DUCT VAV REHEAT 34,Inlet,1
 Non-Parent Node Connection,AIR TERMINAL SINGLE DUCT VAV REHEAT 35 DAMPER OUTLET,AIRTERMINAL:SINGLEDUCT:VAV:REHEAT,AIR TERMINAL SINGLE DUCT VAV REHEAT 35,Outlet,1
 Non-Parent Node Connection,NODE 229,AIRTERMINAL:SINGLEDUCT:VAV:REHEAT,AIR TERMINAL SINGLE DUCT VAV REHEAT 35,Inlet,1
 Non-Parent Node Connection,AIR TERMINAL SINGLE DUCT VAV REHEAT 36 DAMPER OUTLET,AIRTERMINAL:SINGLEDUCT:VAV:REHEAT,AIR TERMINAL SINGLE DUCT VAV REHEAT 36,Outlet,1
 Non-Parent Node Connection,NODE 234,AIRTERMINAL:SINGLEDUCT:VAV:REHEAT,AIR TERMINAL SINGLE DUCT VAV REHEAT 36,Inlet,1
 Non-Parent Node Connection,AIR TERMINAL SINGLE DUCT VAV REHEAT 37 DAMPER OUTLET,AIRTERMINAL:SINGLEDUCT:VAV:REHEAT,AIR TERMINAL SINGLE DUCT VAV REHEAT 37,Outlet,1
 Non-Parent Node Connection,NODE 239,AIRTERMINAL:SINGLEDUCT:VAV:REHEAT,AIR TERMINAL SINGLE DUCT VAV REHEAT 37,Inlet,1
 Non-Parent Node Connection,AIR TERMINAL SINGLE DUCT VAV REHEAT 38 DAMPER OUTLET,AIRTERMINAL:SINGLEDUCT:VAV:REHEAT,AIR TERMINAL SINGLE DUCT VAV REHEAT 38,Outlet,1
 Non-Parent Node Connection,NODE 244,AIRTERMINAL:SINGLEDUCT:VAV:REHEAT,AIR TERMINAL SINGLE DUCT VAV REHEAT 38,Inlet,1
 Non-Parent Node Connection,AIR TERMINAL SINGLE DUCT VAV REHEAT 39 DAMPER OUTLET,AIRTERMINAL:SINGLEDUCT:VAV:REHEAT,AIR TERMINAL SINGLE DUCT VAV REHEAT 39,Outlet,1
 Non-Parent Node Connection,NODE 249,AIRTERMINAL:SINGLEDUCT:VAV:REHEAT,AIR TERMINAL SINGLE DUCT VAV REHEAT 39,Inlet,1
 Non-Parent Node Connection,AIR TERMINAL SINGLE DUCT VAV REHEAT 40 DAMPER OUTLET,AIRTERMINAL:SINGLEDUCT:VAV:REHEAT,AIR TERMINAL SINGLE DUCT VAV REHEAT 40,Outlet,1
 Non-Parent Node Connection,NODE 254,AIRTERMINAL:SINGLEDUCT:VAV:REHEAT,AIR TERMINAL SINGLE DUCT VAV REHEAT 40,Inlet,1
 Non-Parent Node Connection,AIR TERMINAL SINGLE DUCT VAV REHEAT 41 DAMPER OUTLET,AIRTERMINAL:SINGLEDUCT:VAV:REHEAT,AIR TERMINAL SINGLE DUCT VAV REHEAT 41,Outlet,1
 Non-Parent Node Connection,NODE 259,AIRTERMINAL:SINGLEDUCT:VAV:REHEAT,AIR TERMINAL SINGLE DUCT VAV REHEAT 41,Inlet,1
 Non-Parent Node Connection,NODE 44,AIRLOOPHVAC:ZONEMIXER,AIR LOOP HVAC ZONE MIXER 1,Outlet,1
 Non-Parent Node Connection,NODE 63,AIRLOOPHVAC:ZONEMIXER,AIR LOOP HVAC ZONE MIXER 1,Inlet,1
 Non-Parent Node Connection,NODE 68,AIRLOOPHVAC:ZONEMIXER,AIR LOOP HVAC ZONE MIXER 1,Inlet,1
 Non-Parent Node Connection,NODE 73,AIRLOOPHVAC:ZONEMIXER,AIR LOOP HVAC ZONE MIXER 1,Inlet,1
 Non-Parent Node Connection,NODE 78,AIRLOOPHVAC:ZONEMIXER,AIR LOOP HVAC ZONE MIXER 1,Inlet,1
 Non-Parent Node Connection,NODE 83,AIRLOOPHVAC:ZONEMIXER,AIR LOOP HVAC ZONE MIXER 1,Inlet,1
 Non-Parent Node Connection,NODE 88,AIRLOOPHVAC:ZONEMIXER,AIR LOOP HVAC ZONE MIXER 1,Inlet,1
 Non-Parent Node Connection,NODE 93,AIRLOOPHVAC:ZONEMIXER,AIR LOOP HVAC ZONE MIXER 1,Inlet,1
 Non-Parent Node Connection,NODE 98,AIRLOOPHVAC:ZONEMIXER,AIR LOOP HVAC ZONE MIXER 1,Inlet,1
 Non-Parent Node Connection,NODE 103,AIRLOOPHVAC:ZONEMIXER,AIR LOOP HVAC ZONE MIXER 1,Inlet,1
 Non-Parent Node Connection,NODE 108,AIRLOOPHVAC:ZONEMIXER,AIR LOOP HVAC ZONE MIXER 1,Inlet,1
 Non-Parent Node Connection,NODE 113,AIRLOOPHVAC:ZONEMIXER,AIR LOOP HVAC ZONE MIXER 1,Inlet,1
 Non-Parent Node Connection,NODE 118,AIRLOOPHVAC:ZONEMIXER,AIR LOOP HVAC ZONE MIXER 1,Inlet,1
 Non-Parent Node Connection,NODE 123,AIRLOOPHVAC:ZONEMIXER,AIR LOOP HVAC ZONE MIXER 1,Inlet,1
 Non-Parent Node Connection,NODE 128,AIRLOOPHVAC:ZONEMIXER,AIR LOOP HVAC ZONE MIXER 1,Inlet,1
 Non-Parent Node Connection,NODE 133,AIRLOOPHVAC:ZONEMIXER,AIR LOOP HVAC ZONE MIXER 1,Inlet,1
 Non-Parent Node Connection,NODE 138,AIRLOOPHVAC:ZONEMIXER,AIR LOOP HVAC ZONE MIXER 1,Inlet,1
 Non-Parent Node Connection,NODE 143,AIRLOOPHVAC:ZONEMIXER,AIR LOOP HVAC ZONE MIXER 1,Inlet,1
 Non-Parent Node Connection,NODE 148,AIRLOOPHVAC:ZONEMIXER,AIR LOOP HVAC ZONE MIXER 1,Inlet,1
 Non-Parent Node Connection,NODE 153,AIRLOOPHVAC:ZONEMIXER,AIR LOOP HVAC ZONE MIXER 1,Inlet,1
 Non-Parent Node Connection,NODE 158,AIRLOOPHVAC:ZONEMIXER,AIR LOOP HVAC ZONE MIXER 1,Inlet,1
 Non-Parent Node Connection,NODE 163,AIRLOOPHVAC:ZONEMIXER,AIR LOOP HVAC ZONE MIXER 1,Inlet,1
 Non-Parent Node Connection,NODE 168,AIRLOOPHVAC:ZONEMIXER,AIR LOOP HVAC ZONE MIXER 1,Inlet,1
 Non-Parent Node Connection,NODE 173,AIRLOOPHVAC:ZONEMIXER,AIR LOOP HVAC ZONE MIXER 1,Inlet,1
 Non-Parent Node Connection,NODE 178,AIRLOOPHVAC:ZONEMIXER,AIR LOOP HVAC ZONE MIXER 1,Inlet,1
 Non-Parent Node Connection,NODE 183,AIRLOOPHVAC:ZONEMIXER,AIR LOOP HVAC ZONE MIXER 1,Inlet,1
 Non-Parent Node Connection,NODE 188,AIRLOOPHVAC:ZONEMIXER,AIR LOOP HVAC ZONE MIXER 1,Inlet,1
 Non-Parent Node Connection,NODE 193,AIRLOOPHVAC:ZONEMIXER,AIR LOOP HVAC ZONE MIXER 1,Inlet,1
 Non-Parent Node Connection,NODE 198,AIRLOOPHVAC:ZONEMIXER,AIR LOOP HVAC ZONE MIXER 1,Inlet,1
 Non-Parent Node Connection,NODE 203,AIRLOOPHVAC:ZONEMIXER,AIR LOOP HVAC ZONE MIXER 1,Inlet,1
 Non-Parent Node Connection,NODE 208,AIRLOOPHVAC:ZONEMIXER,AIR LOOP HVAC ZONE MIXER 1,Inlet,1
 Non-Parent Node Connection,NODE 213,AIRLOOPHVAC:ZONEMIXER,AIR LOOP HVAC ZONE MIXER 1,Inlet,1
 Non-Parent Node Connection,NODE 218,AIRLOOPHVAC:ZONEMIXER,AIR LOOP HVAC ZONE MIXER 1,Inlet,1
 Non-Parent Node Connection,NODE 223,AIRLOOPHVAC:ZONEMIXER,AIR LOOP HVAC ZONE MIXER 1,Inlet,1
 Non-Parent Node Connection,NODE 228,AIRLOOPHVAC:ZONEMIXER,AIR LOOP HVAC ZONE MIXER 1,Inlet,1
 Non-Parent Node Connection,NODE 233,AIRLOOPHVAC:ZONEMIXER,AIR LOOP HVAC ZONE MIXER 1,Inlet,1
 Non-Parent Node Connection,NODE 238,AIRLOOPHVAC:ZONEMIXER,AIR LOOP HVAC ZONE MIXER 1,Inlet,1
 Non-Parent Node Connection,NODE 243,AIRLOOPHVAC:ZONEMIXER,AIR LOOP HVAC ZONE MIXER 1,Inlet,1
 Non-Parent Node Connection,NODE 248,AIRLOOPHVAC:ZONEMIXER,AIR LOOP HVAC ZONE MIXER 1,Inlet,1
 Non-Parent Node Connection,NODE 253,AIRLOOPHVAC:ZONEMIXER,AIR LOOP HVAC ZONE MIXER 1,Inlet,1
 Non-Parent Node Connection,NODE 258,AIRLOOPHVAC:ZONEMIXER,AIR LOOP HVAC ZONE MIXER 1,Inlet,1
 Non-Parent Node Connection,NODE 48,OUTDOORAIR:MIXER,OUTDOORAIR:MIXER {F3A2DEDD-ADE8-42D0-A05D-6D9C008756DC},Outlet,1
 Non-Parent Node Connection,NODE 46,OUTDOORAIR:MIXER,OUTDOORAIR:MIXER {F3A2DEDD-ADE8-42D0-A05D-6D9C008756DC},Inlet,1
 Non-Parent Node Connection,NODE 47,OUTDOORAIR:MIXER,OUTDOORAIR:MIXER {F3A2DEDD-ADE8-42D0-A05D-6D9C008756DC},ReliefAir,1
 Non-Parent Node Connection,NODE 41,OUTDOORAIR:MIXER,OUTDOORAIR:MIXER {F3A2DEDD-ADE8-42D0-A05D-6D9C008756DC},Inlet,1
 Non-Parent Node Connection,NODE 50,CONTROLLER:WATERCOIL,CONTROLLER WATER COIL 1,Sensor,1
 Non-Parent Node Connection,NODE 56,CONTROLLER:WATERCOIL,CONTROLLER WATER COIL 1,Actuator,1
 Non-Parent Node Connection,NODE 48,CONTROLLER:OUTDOORAIR,CONTROLLER OUTDOOR AIR 1,Sensor,1
 Non-Parent Node Connection,NODE 46,CONTROLLER:OUTDOORAIR,CONTROLLER OUTDOOR AIR 1,Actuator,1
 Non-Parent Node Connection,NODE 47,CONTROLLER:OUTDOORAIR,CONTROLLER OUTDOOR AIR 1,Actuator,1
 Non-Parent Node Connection,NODE 41,CONTROLLER:OUTDOORAIR,CONTROLLER OUTDOOR AIR 1,Sensor,1
 Non-Parent Node Connection,NODE 48,COIL:COOLING:DX:TWOSPEED,COIL COOLING DX TWO SPEED 1,Inlet,1
 Non-Parent Node Connection,NODE 49,COIL:COOLING:DX:TWOSPEED,COIL COOLING DX TWO SPEED 1,Outlet,1
 Non-Parent Node Connection,NODE 50,FAN:VARIABLEVOLUME,FAN VARIABLE VOLUME 1,Inlet,1
 Non-Parent Node Connection,NODE 42,FAN:VARIABLEVOLUME,FAN VARIABLE VOLUME 1,Outlet,1
 Non-Parent Node Connection,NODE 59,PIPE:ADIABATIC,PIPE ADIABATIC 1,Inlet,1
 Non-Parent Node Connection,NODE 60,PIPE:ADIABATIC,PIPE ADIABATIC 1,Outlet,1
 Non-Parent Node Connection,NODE 61,PIPE:ADIABATIC,PIPE ADIABATIC 2,Inlet,1
 Non-Parent Node Connection,NODE 52,PIPE:ADIABATIC,PIPE ADIABATIC 2,Outlet,1
 Non-Parent Node Connection,NODE 54,PIPE:ADIABATIC,HOT WATER LOOP DEMAND INLET PIPE,Inlet,1
 Non-Parent Node Connection,HOT WATER LOOP DEMAND INLET PIPE NODE,PIPE:ADIABATIC,HOT WATER LOOP DEMAND INLET PIPE,Outlet,1
