! Program Version,EnergyPlus-Linux-OMP-64 8.0.0.008, YMD=2014.01.14 15:13,IDD_Version 8.0.0.008
! Output:Meter Objects (applicable to this run)
Output:Meter,Electricity:Facility,hourly; !- [J]
Output:Meter:Cumulative,Electricity:Facility,hourly; !- [J]
Output:Meter,Electricity:Building,hourly; !- [J]
Output:Meter:Cumulative,Electricity:Building,hourly; !- [J]
Output:Meter,Electricity:Zone:THERMAL ZONE 1,hourly; !- [J]
Output:Meter:Cumulative,Electricity:Zone:THERMAL ZONE 1,hourly; !- [J]
Output:Meter,InteriorLights:Electricity,hourly; !- [J]
Output:Meter:Cumulative,InteriorLights:Electricity,hourly; !- [J]
Output:Meter,InteriorLights:Electricity:Zone:THERMAL ZONE 1,hourly; !- [J]
Output:Meter:Cumulative,InteriorLights:Electricity:Zone:THERMAL ZONE 1,hourly; !- [J]
Output:Meter,General:InteriorLights:Electricity,hourly; !- [J]
Output:Meter:Cumulative,General:InteriorLights:Electricity,hourly; !- [J]
Output:Meter,Electricity:Zone:THERMAL ZONE 10,hourly; !- [J]
Output:Meter:Cumulative,Electricity:Zone:THERMAL ZONE 10,hourly; !- [J]
Output:Meter,InteriorLights:Electricity:Zone:THERMAL ZONE 10,hourly; !- [J]
Output:Meter:Cumulative,InteriorLights:Electricity:Zone:THERMAL ZONE 10,hourly; !- [J]
Output:Meter,Electricity:Zone:THERMAL ZONE 11,hourly; !- [J]
Output:Meter:Cumulative,Electricity:Zone:THERMAL ZONE 11,hourly; !- [J]
Output:Meter,InteriorLights:Electricity:Zone:THERMAL ZONE 11,hourly; !- [J]
Output:Meter:Cumulative,InteriorLights:Electricity:Zone:THERMAL ZONE 11,hourly; !- [J]
Output:Meter,Electricity:Zone:THERMAL ZONE 12,hourly; !- [J]
Output:Meter:Cumulative,Electricity:Zone:THERMAL ZONE 12,hourly; !- [J]
Output:Meter,InteriorLights:Electricity:Zone:THERMAL ZONE 12,hourly; !- [J]
Output:Meter:Cumulative,InteriorLights:Electricity:Zone:THERMAL ZONE 12,hourly; !- [J]
Output:Meter,Electricity:Zone:THERMAL ZONE 13,hourly; !- [J]
Output:Meter:Cumulative,Electricity:Zone:THERMAL ZONE 13,hourly; !- [J]
Output:Meter,InteriorLights:Electricity:Zone:THERMAL ZONE 13,hourly; !- [J]
Output:Meter:Cumulative,InteriorLights:Electricity:Zone:THERMAL ZONE 13,hourly; !- [J]
Output:Meter,Electricity:Zone:THERMAL ZONE 14,hourly; !- [J]
Output:Meter:Cumulative,Electricity:Zone:THERMAL ZONE 14,hourly; !- [J]
Output:Meter,InteriorLights:Electricity:Zone:THERMAL ZONE 14,hourly; !- [J]
Output:Meter:Cumulative,InteriorLights:Electricity:Zone:THERMAL ZONE 14,hourly; !- [J]
Output:Meter,Electricity:Zone:THERMAL ZONE 15,hourly; !- [J]
Output:Meter:Cumulative,Electricity:Zone:THERMAL ZONE 15,hourly; !- [J]
Output:Meter,InteriorLights:Electricity:Zone:THERMAL ZONE 15,hourly; !- [J]
Output:Meter:Cumulative,InteriorLights:Electricity:Zone:THERMAL ZONE 15,hourly; !- [J]
Output:Meter,Electricity:Zone:THERMAL ZONE 16,hourly; !- [J]
Output:Meter:Cumulative,Electricity:Zone:THERMAL ZONE 16,hourly; !- [J]
Output:Meter,InteriorLights:Electricity:Zone:THERMAL ZONE 16,hourly; !- [J]
Output:Meter:Cumulative,InteriorLights:Electricity:Zone:THERMAL ZONE 16,hourly; !- [J]
Output:Meter,Electricity:Zone:THERMAL ZONE 17,hourly; !- [J]
Output:Meter:Cumulative,Electricity:Zone:THERMAL ZONE 17,hourly; !- [J]
Output:Meter,InteriorLights:Electricity:Zone:THERMAL ZONE 17,hourly; !- [J]
Output:Meter:Cumulative,InteriorLights:Electricity:Zone:THERMAL ZONE 17,hourly; !- [J]
Output:Meter,Electricity:Zone:THERMAL ZONE 18,hourly; !- [J]
Output:Meter:Cumulative,Electricity:Zone:THERMAL ZONE 18,hourly; !- [J]
Output:Meter,InteriorLights:Electricity:Zone:THERMAL ZONE 18,hourly; !- [J]
Output:Meter:Cumulative,InteriorLights:Electricity:Zone:THERMAL ZONE 18,hourly; !- [J]
Output:Meter,Electricity:Zone:THERMAL ZONE 19,hourly; !- [J]
Output:Meter:Cumulative,Electricity:Zone:THERMAL ZONE 19,hourly; !- [J]
Output:Meter,InteriorLights:Electricity:Zone:THERMAL ZONE 19,hourly; !- [J]
Output:Meter:Cumulative,InteriorLights:Electricity:Zone:THERMAL ZONE 19,hourly; !- [J]
Output:Meter,Electricity:Zone:THERMAL ZONE 2,hourly; !- [J]
Output:Meter:Cumulative,Electricity:Zone:THERMAL ZONE 2,hourly; !- [J]
Output:Meter,InteriorLights:Electricity:Zone:THERMAL ZONE 2,hourly; !- [J]
Output:Meter:Cumulative,InteriorLights:Electricity:Zone:THERMAL ZONE 2,hourly; !- [J]
Output:Meter,Electricity:Zone:THERMAL ZONE 20,hourly; !- [J]
Output:Meter:Cumulative,Electricity:Zone:THERMAL ZONE 20,hourly; !- [J]
Output:Meter,InteriorLights:Electricity:Zone:THERMAL ZONE 20,hourly; !- [J]
Output:Meter:Cumulative,InteriorLights:Electricity:Zone:THERMAL ZONE 20,hourly; !- [J]
Output:Meter,Electricity:Zone:THERMAL ZONE 21,hourly; !- [J]
Output:Meter:Cumulative,Electricity:Zone:THERMAL ZONE 21,hourly; !- [J]
Output:Meter,InteriorLights:Electricity:Zone:THERMAL ZONE 21,hourly; !- [J]
Output:Meter:Cumulative,InteriorLights:Electricity:Zone:THERMAL ZONE 21,hourly; !- [J]
Output:Meter,Electricity:Zone:THERMAL ZONE 22,hourly; !- [J]
Output:Meter:Cumulative,Electricity:Zone:THERMAL ZONE 22,hourly; !- [J]
Output:Meter,InteriorLights:Electricity:Zone:THERMAL ZONE 22,hourly; !- [J]
Output:Meter:Cumulative,InteriorLights:Electricity:Zone:THERMAL ZONE 22,hourly; !- [J]
Output:Meter,Electricity:Zone:THERMAL ZONE 23,hourly; !- [J]
Output:Meter:Cumulative,Electricity:Zone:THERMAL ZONE 23,hourly; !- [J]
Output:Meter,InteriorLights:Electricity:Zone:THERMAL ZONE 23,hourly; !- [J]
Output:Meter:Cumulative,InteriorLights:Electricity:Zone:THERMAL ZONE 23,hourly; !- [J]
Output:Meter,Electricity:Zone:THERMAL ZONE 24,hourly; !- [J]
Output:Meter:Cumulative,Electricity:Zone:THERMAL ZONE 24,hourly; !- [J]
Output:Meter,InteriorLights:Electricity:Zone:THERMAL ZONE 24,hourly; !- [J]
Output:Meter:Cumulative,InteriorLights:Electricity:Zone:THERMAL ZONE 24,hourly; !- [J]
Output:Meter,Electricity:Zone:THERMAL ZONE 25,hourly; !- [J]
Output:Meter:Cumulative,Electricity:Zone:THERMAL ZONE 25,hourly; !- [J]
Output:Meter,InteriorLights:Electricity:Zone:THERMAL ZONE 25,hourly; !- [J]
Output:Meter:Cumulative,InteriorLights:Electricity:Zone:THERMAL ZONE 25,hourly; !- [J]
Output:Meter,Electricity:Zone:THERMAL ZONE 26,hourly; !- [J]
Output:Meter:Cumulative,Electricity:Zone:THERMAL ZONE 26,hourly; !- [J]
Output:Meter,InteriorLights:Electricity:Zone:THERMAL ZONE 26,hourly; !- [J]
Output:Meter:Cumulative,InteriorLights:Electricity:Zone:THERMAL ZONE 26,hourly; !- [J]
Output:Meter,Electricity:Zone:THERMAL ZONE 27,hourly; !- [J]
Output:Meter:Cumulative,Electricity:Zone:THERMAL ZONE 27,hourly; !- [J]
Output:Meter,InteriorLights:Electricity:Zone:THERMAL ZONE 27,hourly; !- [J]
Output:Meter:Cumulative,InteriorLights:Electricity:Zone:THERMAL ZONE 27,hourly; !- [J]
Output:Meter,Electricity:Zone:THERMAL ZONE 28,hourly; !- [J]
Output:Meter:Cumulative,Electricity:Zone:THERMAL ZONE 28,hourly; !- [J]
Output:Meter,InteriorLights:Electricity:Zone:THERMAL ZONE 28,hourly; !- [J]
Output:Meter:Cumulative,InteriorLights:Electricity:Zone:THERMAL ZONE 28,hourly; !- [J]
Output:Meter,Electricity:Zone:THERMAL ZONE 29,hourly; !- [J]
Output:Meter:Cumulative,Electricity:Zone:THERMAL ZONE 29,hourly; !- [J]
Output:Meter,InteriorLights:Electricity:Zone:THERMAL ZONE 29,hourly; !- [J]
Output:Meter:Cumulative,InteriorLights:Electricity:Zone:THERMAL ZONE 29,hourly; !- [J]
Output:Meter,Electricity:Zone:THERMAL ZONE 3,hourly; !- [J]
Output:Meter:Cumulative,Electricity:Zone:THERMAL ZONE 3,hourly; !- [J]
Output:Meter,InteriorLights:Electricity:Zone:THERMAL ZONE 3,hourly; !- [J]
Output:Meter:Cumulative,InteriorLights:Electricity:Zone:THERMAL ZONE 3,hourly; !- [J]
Output:Meter,Electricity:Zone:THERMAL ZONE 30,hourly; !- [J]
Output:Meter:Cumulative,Electricity:Zone:THERMAL ZONE 30,hourly; !- [J]
Output:Meter,InteriorLights:Electricity:Zone:THERMAL ZONE 30,hourly; !- [J]
Output:Meter:Cumulative,InteriorLights:Electricity:Zone:THERMAL ZONE 30,hourly; !- [J]
Output:Meter,Electricity:Zone:THERMAL ZONE 31,hourly; !- [J]
Output:Meter:Cumulative,Electricity:Zone:THERMAL ZONE 31,hourly; !- [J]
Output:Meter,InteriorLights:Electricity:Zone:THERMAL ZONE 31,hourly; !- [J]
Output:Meter:Cumulative,InteriorLights:Electricity:Zone:THERMAL ZONE 31,hourly; !- [J]
Output:Meter,Electricity:Zone:THERMAL ZONE 32,hourly; !- [J]
Output:Meter:Cumulative,Electricity:Zone:THERMAL ZONE 32,hourly; !- [J]
Output:Meter,InteriorLights:Electricity:Zone:THERMAL ZONE 32,hourly; !- [J]
Output:Meter:Cumulative,InteriorLights:Electricity:Zone:THERMAL ZONE 32,hourly; !- [J]
Output:Meter,Electricity:Zone:THERMAL ZONE 33,hourly; !- [J]
Output:Meter:Cumulative,Electricity:Zone:THERMAL ZONE 33,hourly; !- [J]
Output:Meter,InteriorLights:Electricity:Zone:THERMAL ZONE 33,hourly; !- [J]
Output:Meter:Cumulative,InteriorLights:Electricity:Zone:THERMAL ZONE 33,hourly; !- [J]
Output:Meter,Electricity:Zone:THERMAL ZONE 34,hourly; !- [J]
Output:Meter:Cumulative,Electricity:Zone:THERMAL ZONE 34,hourly; !- [J]
Output:Meter,InteriorLights:Electricity:Zone:THERMAL ZONE 34,hourly; !- [J]
Output:Meter:Cumulative,InteriorLights:Electricity:Zone:THERMAL ZONE 34,hourly; !- [J]
Output:Meter,Electricity:Zone:THERMAL ZONE 35,hourly; !- [J]
Output:Meter:Cumulative,Electricity:Zone:THERMAL ZONE 35,hourly; !- [J]
Output:Meter,InteriorLights:Electricity:Zone:THERMAL ZONE 35,hourly; !- [J]
Output:Meter:Cumulative,InteriorLights:Electricity:Zone:THERMAL ZONE 35,hourly; !- [J]
Output:Meter,Electricity:Zone:THERMAL ZONE 36,hourly; !- [J]
Output:Meter:Cumulative,Electricity:Zone:THERMAL ZONE 36,hourly; !- [J]
Output:Meter,InteriorLights:Electricity:Zone:THERMAL ZONE 36,hourly; !- [J]
Output:Meter:Cumulative,InteriorLights:Electricity:Zone:THERMAL ZONE 36,hourly; !- [J]
Output:Meter,Electricity:Zone:THERMAL ZONE 37,hourly; !- [J]
Output:Meter:Cumulative,Electricity:Zone:THERMAL ZONE 37,hourly; !- [J]
Output:Meter,InteriorLights:Electricity:Zone:THERMAL ZONE 37,hourly; !- [J]
Output:Meter:Cumulative,InteriorLights:Electricity:Zone:THERMAL ZONE 37,hourly; !- [J]
Output:Meter,Electricity:Zone:THERMAL ZONE 38,hourly; !- [J]
Output:Meter:Cumulative,Electricity:Zone:THERMAL ZONE 38,hourly; !- [J]
Output:Meter,InteriorLights:Electricity:Zone:THERMAL ZONE 38,hourly; !- [J]
Output:Meter:Cumulative,InteriorLights:Electricity:Zone:THERMAL ZONE 38,hourly; !- [J]
Output:Meter,Electricity:Zone:THERMAL ZONE 39,hourly; !- [J]
Output:Meter:Cumulative,Electricity:Zone:THERMAL ZONE 39,hourly; !- [J]
Output:Meter,InteriorLights:Electricity:Zone:THERMAL ZONE 39,hourly; !- [J]
Output:Meter:Cumulative,InteriorLights:Electricity:Zone:THERMAL ZONE 39,hourly; !- [J]
Output:Meter,Electricity:Zone:THERMAL ZONE 4,hourly; !- [J]
Output:Meter:Cumulative,Electricity:Zone:THERMAL ZONE 4,hourly; !- [J]
Output:Meter,InteriorLights:Electricity:Zone:THERMAL ZONE 4,hourly; !- [J]
Output:Meter:Cumulative,InteriorLights:Electricity:Zone:THERMAL ZONE 4,hourly; !- [J]
Output:Meter,Electricity:Zone:THERMAL ZONE 40,hourly; !- [J]
Output:Meter:Cumulative,Electricity:Zone:THERMAL ZONE 40,hourly; !- [J]
Output:Meter,InteriorLights:Electricity:Zone:THERMAL ZONE 40,hourly; !- [J]
Output:Meter:Cumulative,InteriorLights:Electricity:Zone:THERMAL ZONE 40,hourly; !- [J]
Output:Meter,Electricity:Zone:THERMAL ZONE 5,hourly; !- [J]
Output:Meter:Cumulative,Electricity:Zone:THERMAL ZONE 5,hourly; !- [J]
Output:Meter,InteriorLights:Electricity:Zone:THERMAL ZONE 5,hourly; !- [J]
Output:Meter:Cumulative,InteriorLights:Electricity:Zone:THERMAL ZONE 5,hourly; !- [J]
Output:Meter,Electricity:Zone:THERMAL ZONE 6,hourly; !- [J]
Output:Meter:Cumulative,Electricity:Zone:THERMAL ZONE 6,hourly; !- [J]
Output:Meter,InteriorLights:Electricity:Zone:THERMAL ZONE 6,hourly; !- [J]
Output:Meter:Cumulative,InteriorLights:Electricity:Zone:THERMAL ZONE 6,hourly; !- [J]
Output:Meter,Electricity:Zone:THERMAL ZONE 7,hourly; !- [J]
Output:Meter:Cumulative,Electricity:Zone:THERMAL ZONE 7,hourly; !- [J]
Output:Meter,InteriorLights:Electricity:Zone:THERMAL ZONE 7,hourly; !- [J]
Output:Meter:Cumulative,InteriorLights:Electricity:Zone:THERMAL ZONE 7,hourly; !- [J]
Output:Meter,Electricity:Zone:THERMAL ZONE 8,hourly; !- [J]
Output:Meter:Cumulative,Electricity:Zone:THERMAL ZONE 8,hourly; !- [J]
Output:Meter,InteriorLights:Electricity:Zone:THERMAL ZONE 8,hourly; !- [J]
Output:Meter:Cumulative,InteriorLights:Electricity:Zone:THERMAL ZONE 8,hourly; !- [J]
Output:Meter,Electricity:Zone:THERMAL ZONE 9,hourly; !- [J]
Output:Meter:Cumulative,Electricity:Zone:THERMAL ZONE 9,hourly; !- [J]
Output:Meter,InteriorLights:Electricity:Zone:THERMAL ZONE 9,hourly; !- [J]
Output:Meter:Cumulative,InteriorLights:Electricity:Zone:THERMAL ZONE 9,hourly; !- [J]
Output:Meter,InteriorEquipment:Electricity,hourly; !- [J]
Output:Meter:Cumulative,InteriorEquipment:Electricity,hourly; !- [J]
Output:Meter,InteriorEquipment:Electricity:Zone:THERMAL ZONE 1,hourly; !- [J]
Output:Meter:Cumulative,InteriorEquipment:Electricity:Zone:THERMAL ZONE 1,hourly; !- [J]
Output:Meter,General:InteriorEquipment:Electricity,hourly; !- [J]
Output:Meter:Cumulative,General:InteriorEquipment:Electricity,hourly; !- [J]
Output:Meter,InteriorEquipment:Electricity:Zone:THERMAL ZONE 10,hourly; !- [J]
Output:Meter:Cumulative,InteriorEquipment:Electricity:Zone:THERMAL ZONE 10,hourly; !- [J]
Output:Meter,InteriorEquipment:Electricity:Zone:THERMAL ZONE 11,hourly; !- [J]
Output:Meter:Cumulative,InteriorEquipment:Electricity:Zone:THERMAL ZONE 11,hourly; !- [J]
Output:Meter,InteriorEquipment:Electricity:Zone:THERMAL ZONE 12,hourly; !- [J]
Output:Meter:Cumulative,InteriorEquipment:Electricity:Zone:THERMAL ZONE 12,hourly; !- [J]
Output:Meter,InteriorEquipment:Electricity:Zone:THERMAL ZONE 13,hourly; !- [J]
Output:Meter:Cumulative,InteriorEquipment:Electricity:Zone:THERMAL ZONE 13,hourly; !- [J]
Output:Meter,InteriorEquipment:Electricity:Zone:THERMAL ZONE 14,hourly; !- [J]
Output:Meter:Cumulative,InteriorEquipment:Electricity:Zone:THERMAL ZONE 14,hourly; !- [J]
Output:Meter,InteriorEquipment:Electricity:Zone:THERMAL ZONE 15,hourly; !- [J]
Output:Meter:Cumulative,InteriorEquipment:Electricity:Zone:THERMAL ZONE 15,hourly; !- [J]
Output:Meter,InteriorEquipment:Electricity:Zone:THERMAL ZONE 16,hourly; !- [J]
Output:Meter:Cumulative,InteriorEquipment:Electricity:Zone:THERMAL ZONE 16,hourly; !- [J]
Output:Meter,InteriorEquipment:Electricity:Zone:THERMAL ZONE 17,hourly; !- [J]
Output:Meter:Cumulative,InteriorEquipment:Electricity:Zone:THERMAL ZONE 17,hourly; !- [J]
Output:Meter,InteriorEquipment:Electricity:Zone:THERMAL ZONE 18,hourly; !- [J]
Output:Meter:Cumulative,InteriorEquipment:Electricity:Zone:THERMAL ZONE 18,hourly; !- [J]
Output:Meter,InteriorEquipment:Electricity:Zone:THERMAL ZONE 19,hourly; !- [J]
Output:Meter:Cumulative,InteriorEquipment:Electricity:Zone:THERMAL ZONE 19,hourly; !- [J]
Output:Meter,InteriorEquipment:Electricity:Zone:THERMAL ZONE 2,hourly; !- [J]
Output:Meter:Cumulative,InteriorEquipment:Electricity:Zone:THERMAL ZONE 2,hourly; !- [J]
Output:Meter,InteriorEquipment:Electricity:Zone:THERMAL ZONE 20,hourly; !- [J]
Output:Meter:Cumulative,InteriorEquipment:Electricity:Zone:THERMAL ZONE 20,hourly; !- [J]
Output:Meter,InteriorEquipment:Electricity:Zone:THERMAL ZONE 21,hourly; !- [J]
Output:Meter:Cumulative,InteriorEquipment:Electricity:Zone:THERMAL ZONE 21,hourly; !- [J]
Output:Meter,InteriorEquipment:Electricity:Zone:THERMAL ZONE 22,hourly; !- [J]
Output:Meter:Cumulative,InteriorEquipment:Electricity:Zone:THERMAL ZONE 22,hourly; !- [J]
Output:Meter,InteriorEquipment:Electricity:Zone:THERMAL ZONE 23,hourly; !- [J]
Output:Meter:Cumulative,InteriorEquipment:Electricity:Zone:THERMAL ZONE 23,hourly; !- [J]
Output:Meter,InteriorEquipment:Electricity:Zone:THERMAL ZONE 24,hourly; !- [J]
Output:Meter:Cumulative,InteriorEquipment:Electricity:Zone:THERMAL ZONE 24,hourly; !- [J]
Output:Meter,InteriorEquipment:Electricity:Zone:THERMAL ZONE 25,hourly; !- [J]
Output:Meter:Cumulative,InteriorEquipment:Electricity:Zone:THERMAL ZONE 25,hourly; !- [J]
Output:Meter,InteriorEquipment:Electricity:Zone:THERMAL ZONE 26,hourly; !- [J]
Output:Meter:Cumulative,InteriorEquipment:Electricity:Zone:THERMAL ZONE 26,hourly; !- [J]
Output:Meter,InteriorEquipment:Electricity:Zone:THERMAL ZONE 27,hourly; !- [J]
Output:Meter:Cumulative,InteriorEquipment:Electricity:Zone:THERMAL ZONE 27,hourly; !- [J]
Output:Meter,InteriorEquipment:Electricity:Zone:THERMAL ZONE 28,hourly; !- [J]
Output:Meter:Cumulative,InteriorEquipment:Electricity:Zone:THERMAL ZONE 28,hourly; !- [J]
Output:Meter,InteriorEquipment:Electricity:Zone:THERMAL ZONE 29,hourly; !- [J]
Output:Meter:Cumulative,InteriorEquipment:Electricity:Zone:THERMAL ZONE 29,hourly; !- [J]
Output:Meter,InteriorEquipment:Electricity:Zone:THERMAL ZONE 3,hourly; !- [J]
Output:Meter:Cumulative,InteriorEquipment:Electricity:Zone:THERMAL ZONE 3,hourly; !- [J]
Output:Meter,InteriorEquipment:Electricity:Zone:THERMAL ZONE 30,hourly; !- [J]
Output:Meter:Cumulative,InteriorEquipment:Electricity:Zone:THERMAL ZONE 30,hourly; !- [J]
Output:Meter,InteriorEquipment:Electricity:Zone:THERMAL ZONE 31,hourly; !- [J]
Output:Meter:Cumulative,InteriorEquipment:Electricity:Zone:THERMAL ZONE 31,hourly; !- [J]
Output:Meter,InteriorEquipment:Electricity:Zone:THERMAL ZONE 32,hourly; !- [J]
Output:Meter:Cumulative,InteriorEquipment:Electricity:Zone:THERMAL ZONE 32,hourly; !- [J]
Output:Meter,InteriorEquipment:Electricity:Zone:THERMAL ZONE 33,hourly; !- [J]
Output:Meter:Cumulative,InteriorEquipment:Electricity:Zone:THERMAL ZONE 33,hourly; !- [J]
Output:Meter,InteriorEquipment:Electricity:Zone:THERMAL ZONE 34,hourly; !- [J]
Output:Meter:Cumulative,InteriorEquipment:Electricity:Zone:THERMAL ZONE 34,hourly; !- [J]
Output:Meter,InteriorEquipment:Electricity:Zone:THERMAL ZONE 35,hourly; !- [J]
Output:Meter:Cumulative,InteriorEquipment:Electricity:Zone:THERMAL ZONE 35,hourly; !- [J]
Output:Meter,InteriorEquipment:Electricity:Zone:THERMAL ZONE 36,hourly; !- [J]
Output:Meter:Cumulative,InteriorEquipment:Electricity:Zone:THERMAL ZONE 36,hourly; !- [J]
Output:Meter,InteriorEquipment:Electricity:Zone:THERMAL ZONE 37,hourly; !- [J]
Output:Meter:Cumulative,InteriorEquipment:Electricity:Zone:THERMAL ZONE 37,hourly; !- [J]
Output:Meter,InteriorEquipment:Electricity:Zone:THERMAL ZONE 38,hourly; !- [J]
Output:Meter:Cumulative,InteriorEquipment:Electricity:Zone:THERMAL ZONE 38,hourly; !- [J]
Output:Meter,InteriorEquipment:Electricity:Zone:THERMAL ZONE 39,hourly; !- [J]
Output:Meter:Cumulative,InteriorEquipment:Electricity:Zone:THERMAL ZONE 39,hourly; !- [J]
Output:Meter,InteriorEquipment:Electricity:Zone:THERMAL ZONE 4,hourly; !- [J]
Output:Meter:Cumulative,InteriorEquipment:Electricity:Zone:THERMAL ZONE 4,hourly; !- [J]
Output:Meter,InteriorEquipment:Electricity:Zone:THERMAL ZONE 40,hourly; !- [J]
Output:Meter:Cumulative,InteriorEquipment:Electricity:Zone:THERMAL ZONE 40,hourly; !- [J]
Output:Meter,InteriorEquipment:Electricity:Zone:THERMAL ZONE 5,hourly; !- [J]
Output:Meter:Cumulative,InteriorEquipment:Electricity:Zone:THERMAL ZONE 5,hourly; !- [J]
Output:Meter,InteriorEquipment:Electricity:Zone:THERMAL ZONE 6,hourly; !- [J]
Output:Meter:Cumulative,InteriorEquipment:Electricity:Zone:THERMAL ZONE 6,hourly; !- [J]
Output:Meter,InteriorEquipment:Electricity:Zone:THERMAL ZONE 7,hourly; !- [J]
Output:Meter:Cumulative,InteriorEquipment:Electricity:Zone:THERMAL ZONE 7,hourly; !- [J]
Output:Meter,InteriorEquipment:Electricity:Zone:THERMAL ZONE 8,hourly; !- [J]
Output:Meter:Cumulative,InteriorEquipment:Electricity:Zone:THERMAL ZONE 8,hourly; !- [J]
Output:Meter,InteriorEquipment:Electricity:Zone:THERMAL ZONE 9,hourly; !- [J]
Output:Meter:Cumulative,InteriorEquipment:Electricity:Zone:THERMAL ZONE 9,hourly; !- [J]
Output:Meter,EnergyTransfer:Facility,hourly; !- [J]
Output:Meter:Cumulative,EnergyTransfer:Facility,hourly; !- [J]
Output:Meter,EnergyTransfer:Building,hourly; !- [J]
Output:Meter:Cumulative,EnergyTransfer:Building,hourly; !- [J]
Output:Meter,EnergyTransfer:Zone:THERMAL ZONE 1,hourly; !- [J]
Output:Meter:Cumulative,EnergyTransfer:Zone:THERMAL ZONE 1,hourly; !- [J]
Output:Meter,Heating:EnergyTransfer,hourly; !- [J]
Output:Meter:Cumulative,Heating:EnergyTransfer,hourly; !- [J]
Output:Meter,Heating:EnergyTransfer:Zone:THERMAL ZONE 1,hourly; !- [J]
Output:Meter:Cumulative,Heating:EnergyTransfer:Zone:THERMAL ZONE 1,hourly; !- [J]
Output:Meter,Cooling:EnergyTransfer,hourly; !- [J]
Output:Meter:Cumulative,Cooling:EnergyTransfer,hourly; !- [J]
Output:Meter,Cooling:EnergyTransfer:Zone:THERMAL ZONE 1,hourly; !- [J]
Output:Meter:Cumulative,Cooling:EnergyTransfer:Zone:THERMAL ZONE 1,hourly; !- [J]
Output:Meter,EnergyTransfer:Zone:THERMAL ZONE 10,hourly; !- [J]
Output:Meter:Cumulative,EnergyTransfer:Zone:THERMAL ZONE 10,hourly; !- [J]
Output:Meter,Heating:EnergyTransfer:Zone:THERMAL ZONE 10,hourly; !- [J]
Output:Meter:Cumulative,Heating:EnergyTransfer:Zone:THERMAL ZONE 10,hourly; !- [J]
Output:Meter,Cooling:EnergyTransfer:Zone:THERMAL ZONE 10,hourly; !- [J]
Output:Meter:Cumulative,Cooling:EnergyTransfer:Zone:THERMAL ZONE 10,hourly; !- [J]
Output:Meter,EnergyTransfer:Zone:THERMAL ZONE 11,hourly; !- [J]
Output:Meter:Cumulative,EnergyTransfer:Zone:THERMAL ZONE 11,hourly; !- [J]
Output:Meter,Heating:EnergyTransfer:Zone:THERMAL ZONE 11,hourly; !- [J]
Output:Meter:Cumulative,Heating:EnergyTransfer:Zone:THERMAL ZONE 11,hourly; !- [J]
Output:Meter,Cooling:EnergyTransfer:Zone:THERMAL ZONE 11,hourly; !- [J]
Output:Meter:Cumulative,Cooling:EnergyTransfer:Zone:THERMAL ZONE 11,hourly; !- [J]
Output:Meter,EnergyTransfer:Zone:THERMAL ZONE 12,hourly; !- [J]
Output:Meter:Cumulative,EnergyTransfer:Zone:THERMAL ZONE 12,hourly; !- [J]
Output:Meter,Heating:EnergyTransfer:Zone:THERMAL ZONE 12,hourly; !- [J]
Output:Meter:Cumulative,Heating:EnergyTransfer:Zone:THERMAL ZONE 12,hourly; !- [J]
Output:Meter,Cooling:EnergyTransfer:Zone:THERMAL ZONE 12,hourly; !- [J]
Output:Meter:Cumulative,Cooling:EnergyTransfer:Zone:THERMAL ZONE 12,hourly; !- [J]
Output:Meter,EnergyTransfer:Zone:THERMAL ZONE 13,hourly; !- [J]
Output:Meter:Cumulative,EnergyTransfer:Zone:THERMAL ZONE 13,hourly; !- [J]
Output:Meter,Heating:EnergyTransfer:Zone:THERMAL ZONE 13,hourly; !- [J]
Output:Meter:Cumulative,Heating:EnergyTransfer:Zone:THERMAL ZONE 13,hourly; !- [J]
Output:Meter,Cooling:EnergyTransfer:Zone:THERMAL ZONE 13,hourly; !- [J]
Output:Meter:Cumulative,Cooling:EnergyTransfer:Zone:THERMAL ZONE 13,hourly; !- [J]
Output:Meter,EnergyTransfer:Zone:THERMAL ZONE 14,hourly; !- [J]
Output:Meter:Cumulative,EnergyTransfer:Zone:THERMAL ZONE 14,hourly; !- [J]
Output:Meter,Heating:EnergyTransfer:Zone:THERMAL ZONE 14,hourly; !- [J]
Output:Meter:Cumulative,Heating:EnergyTransfer:Zone:THERMAL ZONE 14,hourly; !- [J]
Output:Meter,Cooling:EnergyTransfer:Zone:THERMAL ZONE 14,hourly; !- [J]
Output:Meter:Cumulative,Cooling:EnergyTransfer:Zone:THERMAL ZONE 14,hourly; !- [J]
Output:Meter,EnergyTransfer:Zone:THERMAL ZONE 15,hourly; !- [J]
Output:Meter:Cumulative,EnergyTransfer:Zone:THERMAL ZONE 15,hourly; !- [J]
Output:Meter,Heating:EnergyTransfer:Zone:THERMAL ZONE 15,hourly; !- [J]
Output:Meter:Cumulative,Heating:EnergyTransfer:Zone:THERMAL ZONE 15,hourly; !- [J]
Output:Meter,Cooling:EnergyTransfer:Zone:THERMAL ZONE 15,hourly; !- [J]
Output:Meter:Cumulative,Cooling:EnergyTransfer:Zone:THERMAL ZONE 15,hourly; !- [J]
Output:Meter,EnergyTransfer:Zone:THERMAL ZONE 16,hourly; !- [J]
Output:Meter:Cumulative,EnergyTransfer:Zone:THERMAL ZONE 16,hourly; !- [J]
Output:Meter,Heating:EnergyTransfer:Zone:THERMAL ZONE 16,hourly; !- [J]
Output:Meter:Cumulative,Heating:EnergyTransfer:Zone:THERMAL ZONE 16,hourly; !- [J]
Output:Meter,Cooling:EnergyTransfer:Zone:THERMAL ZONE 16,hourly; !- [J]
Output:Meter:Cumulative,Cooling:EnergyTransfer:Zone:THERMAL ZONE 16,hourly; !- [J]
Output:Meter,EnergyTransfer:Zone:THERMAL ZONE 17,hourly; !- [J]
Output:Meter:Cumulative,EnergyTransfer:Zone:THERMAL ZONE 17,hourly; !- [J]
Output:Meter,Heating:EnergyTransfer:Zone:THERMAL ZONE 17,hourly; !- [J]
Output:Meter:Cumulative,Heating:EnergyTransfer:Zone:THERMAL ZONE 17,hourly; !- [J]
Output:Meter,Cooling:EnergyTransfer:Zone:THERMAL ZONE 17,hourly; !- [J]
Output:Meter:Cumulative,Cooling:EnergyTransfer:Zone:THERMAL ZONE 17,hourly; !- [J]
Output:Meter,EnergyTransfer:Zone:THERMAL ZONE 18,hourly; !- [J]
Output:Meter:Cumulative,EnergyTransfer:Zone:THERMAL ZONE 18,hourly; !- [J]
Output:Meter,Heating:EnergyTransfer:Zone:THERMAL ZONE 18,hourly; !- [J]
Output:Meter:Cumulative,Heating:EnergyTransfer:Zone:THERMAL ZONE 18,hourly; !- [J]
Output:Meter,Cooling:EnergyTransfer:Zone:THERMAL ZONE 18,hourly; !- [J]
Output:Meter:Cumulative,Cooling:EnergyTransfer:Zone:THERMAL ZONE 18,hourly; !- [J]
Output:Meter,EnergyTransfer:Zone:THERMAL ZONE 19,hourly; !- [J]
Output:Meter:Cumulative,EnergyTransfer:Zone:THERMAL ZONE 19,hourly; !- [J]
Output:Meter,Heating:EnergyTransfer:Zone:THERMAL ZONE 19,hourly; !- [J]
Output:Meter:Cumulative,Heating:EnergyTransfer:Zone:THERMAL ZONE 19,hourly; !- [J]
Output:Meter,Cooling:EnergyTransfer:Zone:THERMAL ZONE 19,hourly; !- [J]
Output:Meter:Cumulative,Cooling:EnergyTransfer:Zone:THERMAL ZONE 19,hourly; !- [J]
Output:Meter,EnergyTransfer:Zone:THERMAL ZONE 2,hourly; !- [J]
Output:Meter:Cumulative,EnergyTransfer:Zone:THERMAL ZONE 2,hourly; !- [J]
Output:Meter,Heating:EnergyTransfer:Zone:THERMAL ZONE 2,hourly; !- [J]
Output:Meter:Cumulative,Heating:EnergyTransfer:Zone:THERMAL ZONE 2,hourly; !- [J]
Output:Meter,Cooling:EnergyTransfer:Zone:THERMAL ZONE 2,hourly; !- [J]
Output:Meter:Cumulative,Cooling:EnergyTransfer:Zone:THERMAL ZONE 2,hourly; !- [J]
Output:Meter,EnergyTransfer:Zone:THERMAL ZONE 20,hourly; !- [J]
Output:Meter:Cumulative,EnergyTransfer:Zone:THERMAL ZONE 20,hourly; !- [J]
Output:Meter,Heating:EnergyTransfer:Zone:THERMAL ZONE 20,hourly; !- [J]
Output:Meter:Cumulative,Heating:EnergyTransfer:Zone:THERMAL ZONE 20,hourly; !- [J]
Output:Meter,Cooling:EnergyTransfer:Zone:THERMAL ZONE 20,hourly; !- [J]
Output:Meter:Cumulative,Cooling:EnergyTransfer:Zone:THERMAL ZONE 20,hourly; !- [J]
Output:Meter,EnergyTransfer:Zone:THERMAL ZONE 21,hourly; !- [J]
Output:Meter:Cumulative,EnergyTransfer:Zone:THERMAL ZONE 21,hourly; !- [J]
Output:Meter,Heating:EnergyTransfer:Zone:THERMAL ZONE 21,hourly; !- [J]
Output:Meter:Cumulative,Heating:EnergyTransfer:Zone:THERMAL ZONE 21,hourly; !- [J]
Output:Meter,Cooling:EnergyTransfer:Zone:THERMAL ZONE 21,hourly; !- [J]
Output:Meter:Cumulative,Cooling:EnergyTransfer:Zone:THERMAL ZONE 21,hourly; !- [J]
Output:Meter,EnergyTransfer:Zone:THERMAL ZONE 22,hourly; !- [J]
Output:Meter:Cumulative,EnergyTransfer:Zone:THERMAL ZONE 22,hourly; !- [J]
Output:Meter,Heating:EnergyTransfer:Zone:THERMAL ZONE 22,hourly; !- [J]
Output:Meter:Cumulative,Heating:EnergyTransfer:Zone:THERMAL ZONE 22,hourly; !- [J]
Output:Meter,Cooling:EnergyTransfer:Zone:THERMAL ZONE 22,hourly; !- [J]
Output:Meter:Cumulative,Cooling:EnergyTransfer:Zone:THERMAL ZONE 22,hourly; !- [J]
Output:Meter,EnergyTransfer:Zone:THERMAL ZONE 23,hourly; !- [J]
Output:Meter:Cumulative,EnergyTransfer:Zone:THERMAL ZONE 23,hourly; !- [J]
Output:Meter,Heating:EnergyTransfer:Zone:THERMAL ZONE 23,hourly; !- [J]
Output:Meter:Cumulative,Heating:EnergyTransfer:Zone:THERMAL ZONE 23,hourly; !- [J]
Output:Meter,Cooling:EnergyTransfer:Zone:THERMAL ZONE 23,hourly; !- [J]
Output:Meter:Cumulative,Cooling:EnergyTransfer:Zone:THERMAL ZONE 23,hourly; !- [J]
Output:Meter,EnergyTransfer:Zone:THERMAL ZONE 24,hourly; !- [J]
Output:Meter:Cumulative,EnergyTransfer:Zone:THERMAL ZONE 24,hourly; !- [J]
Output:Meter,Heating:EnergyTransfer:Zone:THERMAL ZONE 24,hourly; !- [J]
Output:Meter:Cumulative,Heating:EnergyTransfer:Zone:THERMAL ZONE 24,hourly; !- [J]
Output:Meter,Cooling:EnergyTransfer:Zone:THERMAL ZONE 24,hourly; !- [J]
Output:Meter:Cumulative,Cooling:EnergyTransfer:Zone:THERMAL ZONE 24,hourly; !- [J]
Output:Meter,EnergyTransfer:Zone:THERMAL ZONE 25,hourly; !- [J]
Output:Meter:Cumulative,EnergyTransfer:Zone:THERMAL ZONE 25,hourly; !- [J]
Output:Meter,Heating:EnergyTransfer:Zone:THERMAL ZONE 25,hourly; !- [J]
Output:Meter:Cumulative,Heating:EnergyTransfer:Zone:THERMAL ZONE 25,hourly; !- [J]
Output:Meter,Cooling:EnergyTransfer:Zone:THERMAL ZONE 25,hourly; !- [J]
Output:Meter:Cumulative,Cooling:EnergyTransfer:Zone:THERMAL ZONE 25,hourly; !- [J]
Output:Meter,EnergyTransfer:Zone:THERMAL ZONE 26,hourly; !- [J]
Output:Meter:Cumulative,EnergyTransfer:Zone:THERMAL ZONE 26,hourly; !- [J]
Output:Meter,Heating:EnergyTransfer:Zone:THERMAL ZONE 26,hourly; !- [J]
Output:Meter:Cumulative,Heating:EnergyTransfer:Zone:THERMAL ZONE 26,hourly; !- [J]
Output:Meter,Cooling:EnergyTransfer:Zone:THERMAL ZONE 26,hourly; !- [J]
Output:Meter:Cumulative,Cooling:EnergyTransfer:Zone:THERMAL ZONE 26,hourly; !- [J]
Output:Meter,EnergyTransfer:Zone:THERMAL ZONE 27,hourly; !- [J]
Output:Meter:Cumulative,EnergyTransfer:Zone:THERMAL ZONE 27,hourly; !- [J]
Output:Meter,Heating:EnergyTransfer:Zone:THERMAL ZONE 27,hourly; !- [J]
Output:Meter:Cumulative,Heating:EnergyTransfer:Zone:THERMAL ZONE 27,hourly; !- [J]
Output:Meter,Cooling:EnergyTransfer:Zone:THERMAL ZONE 27,hourly; !- [J]
Output:Meter:Cumulative,Cooling:EnergyTransfer:Zone:THERMAL ZONE 27,hourly; !- [J]
Output:Meter,EnergyTransfer:Zone:THERMAL ZONE 28,hourly; !- [J]
Output:Meter:Cumulative,EnergyTransfer:Zone:THERMAL ZONE 28,hourly; !- [J]
Output:Meter,Heating:EnergyTransfer:Zone:THERMAL ZONE 28,hourly; !- [J]
Output:Meter:Cumulative,Heating:EnergyTransfer:Zone:THERMAL ZONE 28,hourly; !- [J]
Output:Meter,Cooling:EnergyTransfer:Zone:THERMAL ZONE 28,hourly; !- [J]
Output:Meter:Cumulative,Cooling:EnergyTransfer:Zone:THERMAL ZONE 28,hourly; !- [J]
Output:Meter,EnergyTransfer:Zone:THERMAL ZONE 29,hourly; !- [J]
Output:Meter:Cumulative,EnergyTransfer:Zone:THERMAL ZONE 29,hourly; !- [J]
Output:Meter,Heating:EnergyTransfer:Zone:THERMAL ZONE 29,hourly; !- [J]
Output:Meter:Cumulative,Heating:EnergyTransfer:Zone:THERMAL ZONE 29,hourly; !- [J]
Output:Meter,Cooling:EnergyTransfer:Zone:THERMAL ZONE 29,hourly; !- [J]
Output:Meter:Cumulative,Cooling:EnergyTransfer:Zone:THERMAL ZONE 29,hourly; !- [J]
Output:Meter,EnergyTransfer:Zone:THERMAL ZONE 3,hourly; !- [J]
Output:Meter:Cumulative,EnergyTransfer:Zone:THERMAL ZONE 3,hourly; !- [J]
Output:Meter,Heating:EnergyTransfer:Zone:THERMAL ZONE 3,hourly; !- [J]
Output:Meter:Cumulative,Heating:EnergyTransfer:Zone:THERMAL ZONE 3,hourly; !- [J]
Output:Meter,Cooling:EnergyTransfer:Zone:THERMAL ZONE 3,hourly; !- [J]
Output:Meter:Cumulative,Cooling:EnergyTransfer:Zone:THERMAL ZONE 3,hourly; !- [J]
Output:Meter,EnergyTransfer:Zone:THERMAL ZONE 30,hourly; !- [J]
Output:Meter:Cumulative,EnergyTransfer:Zone:THERMAL ZONE 30,hourly; !- [J]
Output:Meter,Heating:EnergyTransfer:Zone:THERMAL ZONE 30,hourly; !- [J]
Output:Meter:Cumulative,Heating:EnergyTransfer:Zone:THERMAL ZONE 30,hourly; !- [J]
Output:Meter,Cooling:EnergyTransfer:Zone:THERMAL ZONE 30,hourly; !- [J]
Output:Meter:Cumulative,Cooling:EnergyTransfer:Zone:THERMAL ZONE 30,hourly; !- [J]
Output:Meter,EnergyTransfer:Zone:THERMAL ZONE 31,hourly; !- [J]
Output:Meter:Cumulative,EnergyTransfer:Zone:THERMAL ZONE 31,hourly; !- [J]
Output:Meter,Heating:EnergyTransfer:Zone:THERMAL ZONE 31,hourly; !- [J]
Output:Meter:Cumulative,Heating:EnergyTransfer:Zone:THERMAL ZONE 31,hourly; !- [J]
Output:Meter,Cooling:EnergyTransfer:Zone:THERMAL ZONE 31,hourly; !- [J]
Output:Meter:Cumulative,Cooling:EnergyTransfer:Zone:THERMAL ZONE 31,hourly; !- [J]
Output:Meter,EnergyTransfer:Zone:THERMAL ZONE 32,hourly; !- [J]
Output:Meter:Cumulative,EnergyTransfer:Zone:THERMAL ZONE 32,hourly; !- [J]
Output:Meter,Heating:EnergyTransfer:Zone:THERMAL ZONE 32,hourly; !- [J]
Output:Meter:Cumulative,Heating:EnergyTransfer:Zone:THERMAL ZONE 32,hourly; !- [J]
Output:Meter,Cooling:EnergyTransfer:Zone:THERMAL ZONE 32,hourly; !- [J]
Output:Meter:Cumulative,Cooling:EnergyTransfer:Zone:THERMAL ZONE 32,hourly; !- [J]
Output:Meter,EnergyTransfer:Zone:THERMAL ZONE 33,hourly; !- [J]
Output:Meter:Cumulative,EnergyTransfer:Zone:THERMAL ZONE 33,hourly; !- [J]
Output:Meter,Heating:EnergyTransfer:Zone:THERMAL ZONE 33,hourly; !- [J]
Output:Meter:Cumulative,Heating:EnergyTransfer:Zone:THERMAL ZONE 33,hourly; !- [J]
Output:Meter,Cooling:EnergyTransfer:Zone:THERMAL ZONE 33,hourly; !- [J]
Output:Meter:Cumulative,Cooling:EnergyTransfer:Zone:THERMAL ZONE 33,hourly; !- [J]
Output:Meter,EnergyTransfer:Zone:THERMAL ZONE 34,hourly; !- [J]
Output:Meter:Cumulative,EnergyTransfer:Zone:THERMAL ZONE 34,hourly; !- [J]
Output:Meter,Heating:EnergyTransfer:Zone:THERMAL ZONE 34,hourly; !- [J]
Output:Meter:Cumulative,Heating:EnergyTransfer:Zone:THERMAL ZONE 34,hourly; !- [J]
Output:Meter,Cooling:EnergyTransfer:Zone:THERMAL ZONE 34,hourly; !- [J]
Output:Meter:Cumulative,Cooling:EnergyTransfer:Zone:THERMAL ZONE 34,hourly; !- [J]
Output:Meter,EnergyTransfer:Zone:THERMAL ZONE 35,hourly; !- [J]
Output:Meter:Cumulative,EnergyTransfer:Zone:THERMAL ZONE 35,hourly; !- [J]
Output:Meter,Heating:EnergyTransfer:Zone:THERMAL ZONE 35,hourly; !- [J]
Output:Meter:Cumulative,Heating:EnergyTransfer:Zone:THERMAL ZONE 35,hourly; !- [J]
Output:Meter,Cooling:EnergyTransfer:Zone:THERMAL ZONE 35,hourly; !- [J]
Output:Meter:Cumulative,Cooling:EnergyTransfer:Zone:THERMAL ZONE 35,hourly; !- [J]
Output:Meter,EnergyTransfer:Zone:THERMAL ZONE 36,hourly; !- [J]
Output:Meter:Cumulative,EnergyTransfer:Zone:THERMAL ZONE 36,hourly; !- [J]
Output:Meter,Heating:EnergyTransfer:Zone:THERMAL ZONE 36,hourly; !- [J]
Output:Meter:Cumulative,Heating:EnergyTransfer:Zone:THERMAL ZONE 36,hourly; !- [J]
Output:Meter,Cooling:EnergyTransfer:Zone:THERMAL ZONE 36,hourly; !- [J]
Output:Meter:Cumulative,Cooling:EnergyTransfer:Zone:THERMAL ZONE 36,hourly; !- [J]
Output:Meter,EnergyTransfer:Zone:THERMAL ZONE 37,hourly; !- [J]
Output:Meter:Cumulative,EnergyTransfer:Zone:THERMAL ZONE 37,hourly; !- [J]
Output:Meter,Heating:EnergyTransfer:Zone:THERMAL ZONE 37,hourly; !- [J]
Output:Meter:Cumulative,Heating:EnergyTransfer:Zone:THERMAL ZONE 37,hourly; !- [J]
Output:Meter,Cooling:EnergyTransfer:Zone:THERMAL ZONE 37,hourly; !- [J]
Output:Meter:Cumulative,Cooling:EnergyTransfer:Zone:THERMAL ZONE 37,hourly; !- [J]
Output:Meter,EnergyTransfer:Zone:THERMAL ZONE 38,hourly; !- [J]
Output:Meter:Cumulative,EnergyTransfer:Zone:THERMAL ZONE 38,hourly; !- [J]
Output:Meter,Heating:EnergyTransfer:Zone:THERMAL ZONE 38,hourly; !- [J]
Output:Meter:Cumulative,Heating:EnergyTransfer:Zone:THERMAL ZONE 38,hourly; !- [J]
Output:Meter,Cooling:EnergyTransfer:Zone:THERMAL ZONE 38,hourly; !- [J]
Output:Meter:Cumulative,Cooling:EnergyTransfer:Zone:THERMAL ZONE 38,hourly; !- [J]
Output:Meter,EnergyTransfer:Zone:THERMAL ZONE 39,hourly; !- [J]
Output:Meter:Cumulative,EnergyTransfer:Zone:THERMAL ZONE 39,hourly; !- [J]
Output:Meter,Heating:EnergyTransfer:Zone:THERMAL ZONE 39,hourly; !- [J]
Output:Meter:Cumulative,Heating:EnergyTransfer:Zone:THERMAL ZONE 39,hourly; !- [J]
Output:Meter,Cooling:EnergyTransfer:Zone:THERMAL ZONE 39,hourly; !- [J]
Output:Meter:Cumulative,Cooling:EnergyTransfer:Zone:THERMAL ZONE 39,hourly; !- [J]
Output:Meter,EnergyTransfer:Zone:THERMAL ZONE 4,hourly; !- [J]
Output:Meter:Cumulative,EnergyTransfer:Zone:THERMAL ZONE 4,hourly; !- [J]
Output:Meter,Heating:EnergyTransfer:Zone:THERMAL ZONE 4,hourly; !- [J]
Output:Meter:Cumulative,Heating:EnergyTransfer:Zone:THERMAL ZONE 4,hourly; !- [J]
Output:Meter,Cooling:EnergyTransfer:Zone:THERMAL ZONE 4,hourly; !- [J]
Output:Meter:Cumulative,Cooling:EnergyTransfer:Zone:THERMAL ZONE 4,hourly; !- [J]
Output:Meter,EnergyTransfer:Zone:THERMAL ZONE 40,hourly; !- [J]
Output:Meter:Cumulative,EnergyTransfer:Zone:THERMAL ZONE 40,hourly; !- [J]
Output:Meter,Heating:EnergyTransfer:Zone:THERMAL ZONE 40,hourly; !- [J]
Output:Meter:Cumulative,Heating:EnergyTransfer:Zone:THERMAL ZONE 40,hourly; !- [J]
Output:Meter,Cooling:EnergyTransfer:Zone:THERMAL ZONE 40,hourly; !- [J]
Output:Meter:Cumulative,Cooling:EnergyTransfer:Zone:THERMAL ZONE 40,hourly; !- [J]
Output:Meter,EnergyTransfer:Zone:THERMAL ZONE 5,hourly; !- [J]
Output:Meter:Cumulative,EnergyTransfer:Zone:THERMAL ZONE 5,hourly; !- [J]
Output:Meter,Heating:EnergyTransfer:Zone:THERMAL ZONE 5,hourly; !- [J]
Output:Meter:Cumulative,Heating:EnergyTransfer:Zone:THERMAL ZONE 5,hourly; !- [J]
Output:Meter,Cooling:EnergyTransfer:Zone:THERMAL ZONE 5,hourly; !- [J]
Output:Meter:Cumulative,Cooling:EnergyTransfer:Zone:THERMAL ZONE 5,hourly; !- [J]
Output:Meter,EnergyTransfer:Zone:THERMAL ZONE 6,hourly; !- [J]
Output:Meter:Cumulative,EnergyTransfer:Zone:THERMAL ZONE 6,hourly; !- [J]
Output:Meter,Heating:EnergyTransfer:Zone:THERMAL ZONE 6,hourly; !- [J]
Output:Meter:Cumulative,Heating:EnergyTransfer:Zone:THERMAL ZONE 6,hourly; !- [J]
Output:Meter,Cooling:EnergyTransfer:Zone:THERMAL ZONE 6,hourly; !- [J]
Output:Meter:Cumulative,Cooling:EnergyTransfer:Zone:THERMAL ZONE 6,hourly; !- [J]
Output:Meter,EnergyTransfer:Zone:THERMAL ZONE 7,hourly; !- [J]
Output:Meter:Cumulative,EnergyTransfer:Zone:THERMAL ZONE 7,hourly; !- [J]
Output:Meter,Heating:EnergyTransfer:Zone:THERMAL ZONE 7,hourly; !- [J]
Output:Meter:Cumulative,Heating:EnergyTransfer:Zone:THERMAL ZONE 7,hourly; !- [J]
Output:Meter,Cooling:EnergyTransfer:Zone:THERMAL ZONE 7,hourly; !- [J]
Output:Meter:Cumulative,Cooling:EnergyTransfer:Zone:THERMAL ZONE 7,hourly; !- [J]
Output:Meter,EnergyTransfer:Zone:THERMAL ZONE 8,hourly; !- [J]
Output:Meter:Cumulative,EnergyTransfer:Zone:THERMAL ZONE 8,hourly; !- [J]
Output:Meter,Heating:EnergyTransfer:Zone:THERMAL ZONE 8,hourly; !- [J]
Output:Meter:Cumulative,Heating:EnergyTransfer:Zone:THERMAL ZONE 8,hourly; !- [J]
Output:Meter,Cooling:EnergyTransfer:Zone:THERMAL ZONE 8,hourly; !- [J]
Output:Meter:Cumulative,Cooling:EnergyTransfer:Zone:THERMAL ZONE 8,hourly; !- [J]
Output:Meter,EnergyTransfer:Zone:THERMAL ZONE 9,hourly; !- [J]
Output:Meter:Cumulative,EnergyTransfer:Zone:THERMAL ZONE 9,hourly; !- [J]
Output:Meter,Heating:EnergyTransfer:Zone:THERMAL ZONE 9,hourly; !- [J]
Output:Meter:Cumulative,Heating:EnergyTransfer:Zone:THERMAL ZONE 9,hourly; !- [J]
Output:Meter,Cooling:EnergyTransfer:Zone:THERMAL ZONE 9,hourly; !- [J]
Output:Meter:Cumulative,Cooling:EnergyTransfer:Zone:THERMAL ZONE 9,hourly; !- [J]
Output:Meter,ElectricityPurchased:Facility,hourly; !- [J]
Output:Meter:Cumulative,ElectricityPurchased:Facility,hourly; !- [J]
Output:Meter,ElectricityPurchased:Plant,hourly; !- [J]
Output:Meter:Cumulative,ElectricityPurchased:Plant,hourly; !- [J]
Output:Meter,Cogeneration:ElectricityPurchased,hourly; !- [J]
Output:Meter:Cumulative,Cogeneration:ElectricityPurchased,hourly; !- [J]
Output:Meter,ElectricitySurplusSold:Facility,hourly; !- [J]
Output:Meter:Cumulative,ElectricitySurplusSold:Facility,hourly; !- [J]
Output:Meter,ElectricitySurplusSold:Plant,hourly; !- [J]
Output:Meter:Cumulative,ElectricitySurplusSold:Plant,hourly; !- [J]
Output:Meter,Cogeneration:ElectricitySurplusSold,hourly; !- [J]
Output:Meter:Cumulative,Cogeneration:ElectricitySurplusSold,hourly; !- [J]
Output:Meter,ElectricityNet:Facility,hourly; !- [J]
Output:Meter:Cumulative,ElectricityNet:Facility,hourly; !- [J]
Output:Meter,ElectricityNet:Plant,hourly; !- [J]
Output:Meter:Cumulative,ElectricityNet:Plant,hourly; !- [J]
Output:Meter,Cogeneration:ElectricityNet,hourly; !- [J]
Output:Meter:Cumulative,Cogeneration:ElectricityNet,hourly; !- [J]
Output:Meter,EnergyTransfer:HVAC,hourly; !- [J]
Output:Meter:Cumulative,EnergyTransfer:HVAC,hourly; !- [J]
Output:Meter,HeatingCoils:EnergyTransfer,hourly; !- [J]
Output:Meter:Cumulative,HeatingCoils:EnergyTransfer,hourly; !- [J]
Output:Meter,PlantLoopHeatingDemand:Facility,hourly; !- [J]
Output:Meter:Cumulative,PlantLoopHeatingDemand:Facility,hourly; !- [J]
Output:Meter,PlantLoopHeatingDemand:HVAC,hourly; !- [J]
Output:Meter:Cumulative,PlantLoopHeatingDemand:HVAC,hourly; !- [J]
Output:Meter,HeatingCoils:PlantLoopHeatingDemand,hourly; !- [J]
Output:Meter:Cumulative,HeatingCoils:PlantLoopHeatingDemand,hourly; !- [J]
Output:Meter,CoolingCoils:EnergyTransfer,hourly; !- [J]
Output:Meter:Cumulative,CoolingCoils:EnergyTransfer,hourly; !- [J]
Output:Meter,Electricity:HVAC,hourly; !- [J]
Output:Meter:Cumulative,Electricity:HVAC,hourly; !- [J]
Output:Meter,Cooling:Electricity,hourly; !- [J]
Output:Meter:Cumulative,Cooling:Electricity,hourly; !- [J]
