! Program Version,EnergyPlus-Linux-OMP-64 8.0.0.008, YMD=2014.01.14 15:13,IDD_Version 8.0.0.008
! Output:Meter Objects (applicable to this run)
Output:Meter,Electricity:Facility,hourly; !- [J]
Output:Meter:Cumulative,Electricity:Facility,hourly; !- [J]
Output:Meter,Electricity:Building,hourly; !- [J]
Output:Meter:Cumulative,Electricity:Building,hourly; !- [J]
Output:Meter,Electricity:Zone:THERMAL ZONE 1,hourly; !- [J]
Output:Meter:Cumulative,Electricity:Zone:THERMAL ZONE 1,hourly; !- [J]
Output:Meter,InteriorLights:Electricity,hourly; !- [J]
Output:Meter:Cumulative,InteriorLights:Electricity,hourly; !- [J]
Output:Meter,InteriorLights:Electricity:Zone:THERMAL ZONE 1,hourly; !- [J]
Output:Meter:Cumulative,InteriorLights:Electricity:Zone:THERMAL ZONE 1,hourly; !- [J]
Output:Meter,General:InteriorLights:Electricity,hourly; !- [J]
Output:Meter:Cumulative,General:InteriorLights:Electricity,hourly; !- [J]
Output:Meter,Electricity:Zone:THERMAL ZONE 10,hourly; !- [J]
Output:Meter:Cumulative,Electricity:Zone:THERMAL ZONE 10,hourly; !- [J]
Output:Meter,InteriorLights:Electricity:Zone:THERMAL ZONE 10,hourly; !- [J]
Output:Meter:Cumulative,InteriorLights:Electricity:Zone:THERMAL ZONE 10,hourly; !- [J]
Output:Meter,Electricity:Zone:THERMAL ZONE 11,hourly; !- [J]
Output:Meter:Cumulative,Electricity:Zone:THERMAL ZONE 11,hourly; !- [J]
Output:Meter,InteriorLights:Electricity:Zone:THERMAL ZONE 11,hourly; !- [J]
Output:Meter:Cumulative,InteriorLights:Electricity:Zone:THERMAL ZONE 11,hourly; !- [J]
Output:Meter,Electricity:Zone:THERMAL ZONE 12,hourly; !- [J]
Output:Meter:Cumulative,Electricity:Zone:THERMAL ZONE 12,hourly; !- [J]
Output:Meter,InteriorLights:Electricity:Zone:THERMAL ZONE 12,hourly; !- [J]
Output:Meter:Cumulative,InteriorLights:Electricity:Zone:THERMAL ZONE 12,hourly; !- [J]
Output:Meter,Electricity:Zone:THERMAL ZONE 13,hourly; !- [J]
Output:Meter:Cumulative,Electricity:Zone:THERMAL ZONE 13,hourly; !- [J]
Output:Meter,InteriorLights:Electricity:Zone:THERMAL ZONE 13,hourly; !- [J]
Output:Meter:Cumulative,InteriorLights:Electricity:Zone:THERMAL ZONE 13,hourly; !- [J]
Output:Meter,Electricity:Zone:THERMAL ZONE 14,hourly; !- [J]
Output:Meter:Cumulative,Electricity:Zone:THERMAL ZONE 14,hourly; !- [J]
Output:Meter,InteriorLights:Electricity:Zone:THERMAL ZONE 14,hourly; !- [J]
Output:Meter:Cumulative,InteriorLights:Electricity:Zone:THERMAL ZONE 14,hourly; !- [J]
Output:Meter,Electricity:Zone:THERMAL ZONE 15,hourly; !- [J]
Output:Meter:Cumulative,Electricity:Zone:THERMAL ZONE 15,hourly; !- [J]
Output:Meter,InteriorLights:Electricity:Zone:THERMAL ZONE 15,hourly; !- [J]
Output:Meter:Cumulative,InteriorLights:Electricity:Zone:THERMAL ZONE 15,hourly; !- [J]
Output:Meter,Electricity:Zone:THERMAL ZONE 16,hourly; !- [J]
Output:Meter:Cumulative,Electricity:Zone:THERMAL ZONE 16,hourly; !- [J]
Output:Meter,InteriorLights:Electricity:Zone:THERMAL ZONE 16,hourly; !- [J]
Output:Meter:Cumulative,InteriorLights:Electricity:Zone:THERMAL ZONE 16,hourly; !- [J]
Output:Meter,Electricity:Zone:THERMAL ZONE 17,hourly; !- [J]
Output:Meter:Cumulative,Electricity:Zone:THERMAL ZONE 17,hourly; !- [J]
Output:Meter,InteriorLights:Electricity:Zone:THERMAL ZONE 17,hourly; !- [J]
Output:Meter:Cumulative,InteriorLights:Electricity:Zone:THERMAL ZONE 17,hourly; !- [J]
Output:Meter,Electricity:Zone:THERMAL ZONE 18,hourly; !- [J]
Output:Meter:Cumulative,Electricity:Zone:THERMAL ZONE 18,hourly; !- [J]
Output:Meter,InteriorLights:Electricity:Zone:THERMAL ZONE 18,hourly; !- [J]
Output:Meter:Cumulative,InteriorLights:Electricity:Zone:THERMAL ZONE 18,hourly; !- [J]
Output:Meter,Electricity:Zone:THERMAL ZONE 19,hourly; !- [J]
Output:Meter:Cumulative,Electricity:Zone:THERMAL ZONE 19,hourly; !- [J]
Output:Meter,InteriorLights:Electricity:Zone:THERMAL ZONE 19,hourly; !- [J]
Output:Meter:Cumulative,InteriorLights:Electricity:Zone:THERMAL ZONE 19,hourly; !- [J]
Output:Meter,Electricity:Zone:THERMAL ZONE 2,hourly; !- [J]
Output:Meter:Cumulative,Electricity:Zone:THERMAL ZONE 2,hourly; !- [J]
Output:Meter,InteriorLights:Electricity:Zone:THERMAL ZONE 2,hourly; !- [J]
Output:Meter:Cumulative,InteriorLights:Electricity:Zone:THERMAL ZONE 2,hourly; !- [J]
Output:Meter,Electricity:Zone:THERMAL ZONE 20,hourly; !- [J]
Output:Meter:Cumulative,Electricity:Zone:THERMAL ZONE 20,hourly; !- [J]
Output:Meter,InteriorLights:Electricity:Zone:THERMAL ZONE 20,hourly; !- [J]
Output:Meter:Cumulative,InteriorLights:Electricity:Zone:THERMAL ZONE 20,hourly; !- [J]
Output:Meter,Electricity:Zone:THERMAL ZONE 21,hourly; !- [J]
Output:Meter:Cumulative,Electricity:Zone:THERMAL ZONE 21,hourly; !- [J]
Output:Meter,InteriorLights:Electricity:Zone:THERMAL ZONE 21,hourly; !- [J]
Output:Meter:Cumulative,InteriorLights:Electricity:Zone:THERMAL ZONE 21,hourly; !- [J]
Output:Meter,Electricity:Zone:THERMAL ZONE 22,hourly; !- [J]
Output:Meter:Cumulative,Electricity:Zone:THERMAL ZONE 22,hourly; !- [J]
Output:Meter,InteriorLights:Electricity:Zone:THERMAL ZONE 22,hourly; !- [J]
Output:Meter:Cumulative,InteriorLights:Electricity:Zone:THERMAL ZONE 22,hourly; !- [J]
Output:Meter,Electricity:Zone:THERMAL ZONE 23,hourly; !- [J]
Output:Meter:Cumulative,Electricity:Zone:THERMAL ZONE 23,hourly; !- [J]
Output:Meter,InteriorLights:Electricity:Zone:THERMAL ZONE 23,hourly; !- [J]
Output:Meter:Cumulative,InteriorLights:Electricity:Zone:THERMAL ZONE 23,hourly; !- [J]
Output:Meter,Electricity:Zone:THERMAL ZONE 24,hourly; !- [J]
Output:Meter:Cumulative,Electricity:Zone:THERMAL ZONE 24,hourly; !- [J]
Output:Meter,InteriorLights:Electricity:Zone:THERMAL ZONE 24,hourly; !- [J]
Output:Meter:Cumulative,InteriorLights:Electricity:Zone:THERMAL ZONE 24,hourly; !- [J]
Output:Meter,Electricity:Zone:THERMAL ZONE 25,hourly; !- [J]
Output:Meter:Cumulative,Electricity:Zone:THERMAL ZONE 25,hourly; !- [J]
Output:Meter,InteriorLights:Electricity:Zone:THERMAL ZONE 25,hourly; !- [J]
Output:Meter:Cumulative,InteriorLights:Electricity:Zone:THERMAL ZONE 25,hourly; !- [J]
Output:Meter,Electricity:Zone:THERMAL ZONE 26,hourly; !- [J]
Output:Meter:Cumulative,Electricity:Zone:THERMAL ZONE 26,hourly; !- [J]
Output:Meter,InteriorLights:Electricity:Zone:THERMAL ZONE 26,hourly; !- [J]
Output:Meter:Cumulative,InteriorLights:Electricity:Zone:THERMAL ZONE 26,hourly; !- [J]
Output:Meter,Electricity:Zone:THERMAL ZONE 27,hourly; !- [J]
Output:Meter:Cumulative,Electricity:Zone:THERMAL ZONE 27,hourly; !- [J]
Output:Meter,InteriorLights:Electricity:Zone:THERMAL ZONE 27,hourly; !- [J]
Output:Meter:Cumulative,InteriorLights:Electricity:Zone:THERMAL ZONE 27,hourly; !- [J]
Output:Meter,Electricity:Zone:THERMAL ZONE 28,hourly; !- [J]
Output:Meter:Cumulative,Electricity:Zone:THERMAL ZONE 28,hourly; !- [J]
Output:Meter,InteriorLights:Electricity:Zone:THERMAL ZONE 28,hourly; !- [J]
Output:Meter:Cumulative,InteriorLights:Electricity:Zone:THERMAL ZONE 28,hourly; !- [J]
Output:Meter,Electricity:Zone:THERMAL ZONE 29,hourly; !- [J]
Output:Meter:Cumulative,Electricity:Zone:THERMAL ZONE 29,hourly; !- [J]
Output:Meter,InteriorLights:Electricity:Zone:THERMAL ZONE 29,hourly; !- [J]
Output:Meter:Cumulative,InteriorLights:Electricity:Zone:THERMAL ZONE 29,hourly; !- [J]
Output:Meter,Electricity:Zone:THERMAL ZONE 3,hourly; !- [J]
Output:Meter:Cumulative,Electricity:Zone:THERMAL ZONE 3,hourly; !- [J]
Output:Meter,InteriorLights:Electricity:Zone:THERMAL ZONE 3,hourly; !- [J]
Output:Meter:Cumulative,InteriorLights:Electricity:Zone:THERMAL ZONE 3,hourly; !- [J]
Output:Meter,Electricity:Zone:THERMAL ZONE 30,hourly; !- [J]
Output:Meter:Cumulative,Electricity:Zone:THERMAL ZONE 30,hourly; !- [J]
Output:Meter,InteriorLights:Electricity:Zone:THERMAL ZONE 30,hourly; !- [J]
Output:Meter:Cumulative,InteriorLights:Electricity:Zone:THERMAL ZONE 30,hourly; !- [J]
Output:Meter,Electricity:Zone:THERMAL ZONE 31,hourly; !- [J]
Output:Meter:Cumulative,Electricity:Zone:THERMAL ZONE 31,hourly; !- [J]
Output:Meter,InteriorLights:Electricity:Zone:THERMAL ZONE 31,hourly; !- [J]
Output:Meter:Cumulative,InteriorLights:Electricity:Zone:THERMAL ZONE 31,hourly; !- [J]
Output:Meter,Electricity:Zone:THERMAL ZONE 32,hourly; !- [J]
Output:Meter:Cumulative,Electricity:Zone:THERMAL ZONE 32,hourly; !- [J]
Output:Meter,InteriorLights:Electricity:Zone:THERMAL ZONE 32,hourly; !- [J]
Output:Meter:Cumulative,InteriorLights:Electricity:Zone:THERMAL ZONE 32,hourly; !- [J]
Output:Meter,Electricity:Zone:THERMAL ZONE 33,hourly; !- [J]
Output:Meter:Cumulative,Electricity:Zone:THERMAL ZONE 33,hourly; !- [J]
Output:Meter,InteriorLights:Electricity:Zone:THERMAL ZONE 33,hourly; !- [J]
Output:Meter:Cumulative,InteriorLights:Electricity:Zone:THERMAL ZONE 33,hourly; !- [J]
Output:Meter,Electricity:Zone:THERMAL ZONE 34,hourly; !- [J]
Output:Meter:Cumulative,Electricity:Zone:THERMAL ZONE 34,hourly; !- [J]
Output:Meter,InteriorLights:Electricity:Zone:THERMAL ZONE 34,hourly; !- [J]
Output:Meter:Cumulative,InteriorLights:Electricity:Zone:THERMAL ZONE 34,hourly; !- [J]
Output:Meter,Electricity:Zone:THERMAL ZONE 35,hourly; !- [J]
Output:Meter:Cumulative,Electricity:Zone:THERMAL ZONE 35,hourly; !- [J]
Output:Meter,InteriorLights:Electricity:Zone:THERMAL ZONE 35,hourly; !- [J]
Output:Meter:Cumulative,InteriorLights:Electricity:Zone:THERMAL ZONE 35,hourly; !- [J]
Output:Meter,Electricity:Zone:THERMAL ZONE 36,hourly; !- [J]
Output:Meter:Cumulative,Electricity:Zone:THERMAL ZONE 36,hourly; !- [J]
Output:Meter,InteriorLights:Electricity:Zone:THERMAL ZONE 36,hourly; !- [J]
Output:Meter:Cumulative,InteriorLights:Electricity:Zone:THERMAL ZONE 36,hourly; !- [J]
Output:Meter,Electricity:Zone:THERMAL ZONE 37,hourly; !- [J]
Output:Meter:Cumulative,Electricity:Zone:THERMAL ZONE 37,hourly; !- [J]
Output:Meter,InteriorLights:Electricity:Zone:THERMAL ZONE 37,hourly; !- [J]
Output:Meter:Cumulative,InteriorLights:Electricity:Zone:THERMAL ZONE 37,hourly; !- [J]
Output:Meter,Electricity:Zone:THERMAL ZONE 38,hourly; !- [J]
Output:Meter:Cumulative,Electricity:Zone:THERMAL ZONE 38,hourly; !- [J]
Output:Meter,InteriorLights:Electricity:Zone:THERMAL ZONE 38,hourly; !- [J]
Output:Meter:Cumulative,InteriorLights:Electricity:Zone:THERMAL ZONE 38,hourly; !- [J]
Output:Meter,Electricity:Zone:THERMAL ZONE 39,hourly; !- [J]
Output:Meter:Cumulative,Electricity:Zone:THERMAL ZONE 39,hourly; !- [J]
Output:Meter,InteriorLights:Electricity:Zone:THERMAL ZONE 39,hourly; !- [J]
Output:Meter:Cumulative,InteriorLights:Electricity:Zone:THERMAL ZONE 39,hourly; !- [J]
Output:Meter,Electricity:Zone:THERMAL ZONE 4,hourly; !- [J]
Output:Meter:Cumulative,Electricity:Zone:THERMAL ZONE 4,hourly; !- [J]
Output:Meter,InteriorLights:Electricity:Zone:THERMAL ZONE 4,hourly; !- [J]
Output:Meter:Cumulative,InteriorLights:Electricity:Zone:THERMAL ZONE 4,hourly; !- [J]
Output:Meter,Electricity:Zone:THERMAL ZONE 40,hourly; !- [J]
Output:Meter:Cumulative,Electricity:Zone:THERMAL ZONE 40,hourly; !- [J]
Output:Meter,InteriorLights:Electricity:Zone:THERMAL ZONE 40,hourly; !- [J]
Output:Meter:Cumulative,InteriorLights:Electricity:Zone:THERMAL ZONE 40,hourly; !- [J]
Output:Meter,Electricity:Zone:THERMAL ZONE 5,hourly; !- [J]
Output:Meter:Cumulative,Electricity:Zone:THERMAL ZONE 5,hourly; !- [J]
Output:Meter,InteriorLights:Electricity:Zone:THERMAL ZONE 5,hourly; !- [J]
Output:Meter:Cumulative,InteriorLights:Electricity:Zone:THERMAL ZONE 5,hourly; !- [J]
Output:Meter,Electricity:Zone:THERMAL ZONE 6,hourly; !- [J]
Output:Meter:Cumulative,Electricity:Zone:THERMAL ZONE 6,hourly; !- [J]
Output:Meter,InteriorLights:Electricity:Zone:THERMAL ZONE 6,hourly; !- [J]
Output:Meter:Cumulative,InteriorLights:Electricity:Zone:THERMAL ZONE 6,hourly; !- [J]
Output:Meter,Electricity:Zone:THERMAL ZONE 7,hourly; !- [J]
Output:Meter:Cumulative,Electricity:Zone:THERMAL ZONE 7,hourly; !- [J]
Output:Meter,InteriorLights:Electricity:Zone:THERMAL ZONE 7,hourly; !- [J]
Output:Meter:Cumulative,InteriorLights:Electricity:Zone:THERMAL ZONE 7,hourly; !- [J]
Output:Meter,Electricity:Zone:THERMAL ZONE 8,hourly; !- [J]
Output:Meter:Cumulative,Electricity:Zone:THERMAL ZONE 8,hourly; !- [J]
Output:Meter,InteriorLights:Electricity:Zone:THERMAL ZONE 8,hourly; !- [J]
Output:Meter:Cumulative,InteriorLights:Electricity:Zone:THERMAL ZONE 8,hourly; !- [J]
Output:Meter,Electricity:Zone:THERMAL ZONE 9,hourly; !- [J]
Output:Meter:Cumulative,Electricity:Zone:THERMAL ZONE 9,hourly; !- [J]
Output:Meter,InteriorLights:Electricity:Zone:THERMAL ZONE 9,hourly; !- [J]
Output:Meter:Cumulative,InteriorLights:Electricity:Zone:THERMAL ZONE 9,hourly; !- [J]
Output:Meter,InteriorEquipment:Electricity,hourly; !- [J]
Output:Meter:Cumulative,InteriorEquipment:Electricity,hourly; !- [J]
Output:Meter,InteriorEquipment:Electricity:Zone:THERMAL ZONE 1,hourly; !- [J]
Output:Meter:Cumulative,InteriorEquipment:Electricity:Zone:THERMAL ZONE 1,hourly; !- [J]
Output:Meter,General:InteriorEquipment:Electricity,hourly; !- [J]
Output:Meter:Cumulative,General:InteriorEquipment:Electricity,hourly; !- [J]
Output:Meter,InteriorEquipment:Electricity:Zone:THERMAL ZONE 10,hourly; !- [J]
Output:Meter:Cumulative,InteriorEquipment:Electricity:Zone:THERMAL ZONE 10,hourly; !- [J]
Output:Meter,InteriorEquipment:Electricity:Zone:THERMAL ZONE 11,hourly; !- [J]
Output:Meter:Cumulative,InteriorEquipment:Electricity:Zone:THERMAL ZONE 11,hourly; !- [J]
Output:Meter,InteriorEquipment:Electricity:Zone:THERMAL ZONE 12,hourly; !- [J]
Output:Meter:Cumulative,InteriorEquipment:Electricity:Zone:THERMAL ZONE 12,hourly; !- [J]
Output:Meter,InteriorEquipment:Electricity:Zone:THERMAL ZONE 13,hourly; !- [J]
Output:Meter:Cumulative,InteriorEquipment:Electricity:Zone:THERMAL ZONE 13,hourly; !- [J]
Output:Meter,InteriorEquipment:Electricity:Zone:THERMAL ZONE 14,hourly; !- [J]
Output:Meter:Cumulative,InteriorEquipment:Electricity:Zone:THERMAL ZONE 14,hourly; !- [J]
Output:Meter,InteriorEquipment:Electricity:Zone:THERMAL ZONE 15,hourly; !- [J]
Output:Meter:Cumulative,InteriorEquipment:Electricity:Zone:THERMAL ZONE 15,hourly; !- [J]
Output:Meter,InteriorEquipment:Electricity:Zone:THERMAL ZONE 16,hourly; !- [J]
Output:Meter:Cumulative,InteriorEquipment:Electricity:Zone:THERMAL ZONE 16,hourly; !- [J]
Output:Meter,InteriorEquipment:Electricity:Zone:THERMAL ZONE 17,hourly; !- [J]
Output:Meter:Cumulative,InteriorEquipment:Electricity:Zone:THERMAL ZONE 17,hourly; !- [J]
Output:Meter,InteriorEquipment:Electricity:Zone:THERMAL ZONE 18,hourly; !- [J]
Output:Meter:Cumulative,InteriorEquipment:Electricity:Zone:THERMAL ZONE 18,hourly; !- [J]
Output:Meter,InteriorEquipment:Electricity:Zone:THERMAL ZONE 19,hourly; !- [J]
Output:Meter:Cumulative,InteriorEquipment:Electricity:Zone:THERMAL ZONE 19,hourly; !- [J]
Output:Meter,InteriorEquipment:Electricity:Zone:THERMAL ZONE 2,hourly; !- [J]
Output:Meter:Cumulative,InteriorEquipment:Electricity:Zone:THERMAL ZONE 2,hourly; !- [J]
Output:Meter,InteriorEquipment:Electricity:Zone:THERMAL ZONE 20,hourly; !- [J]
Output:Meter:Cumulative,InteriorEquipment:Electricity:Zone:THERMAL ZONE 20,hourly; !- [J]
Output:Meter,InteriorEquipment:Electricity:Zone:THERMAL ZONE 21,hourly; !- [J]
Output:Meter:Cumulative,InteriorEquipment:Electricity:Zone:THERMAL ZONE 21,hourly; !- [J]
Output:Meter,InteriorEquipment:Electricity:Zone:THERMAL ZONE 22,hourly; !- [J]
Output:Meter:Cumulative,InteriorEquipment:Electricity:Zone:THERMAL ZONE 22,hourly; !- [J]
Output:Meter,InteriorEquipment:Electricity:Zone:THERMAL ZONE 23,hourly; !- [J]
Output:Meter:Cumulative,InteriorEquipment:Electricity:Zone:THERMAL ZONE 23,hourly; !- [J]
Output:Meter,InteriorEquipment:Electricity:Zone:THERMAL ZONE 24,hourly; !- [J]
Output:Meter:Cumulative,InteriorEquipment:Electricity:Zone:THERMAL ZONE 24,hourly; !- [J]
Output:Meter,InteriorEquipment:Electricity:Zone:THERMAL ZONE 25,hourly; !- [J]
Output:Meter:Cumulative,InteriorEquipment:Electricity:Zone:THERMAL ZONE 25,hourly; !- [J]
Output:Meter,InteriorEquipment:Electricity:Zone:THERMAL ZONE 26,hourly; !- [J]
Output:Meter:Cumulative,InteriorEquipment:Electricity:Zone:THERMAL ZONE 26,hourly; !- [J]
Output:Meter,InteriorEquipment:Electricity:Zone:THERMAL ZONE 27,hourly; !- [J]
Output:Meter:Cumulative,InteriorEquipment:Electricity:Zone:THERMAL ZONE 27,hourly; !- [J]
Output:Meter,InteriorEquipment:Electricity:Zone:THERMAL ZONE 28,hourly; !- [J]
Output:Meter:Cumulative,InteriorEquipment:Electricity:Zone:THERMAL ZONE 28,hourly; !- [J]
Output:Meter,InteriorEquipment:Electricity:Zone:THERMAL ZONE 29,hourly; !- [J]
Output:Meter:Cumulative,InteriorEquipment:Electricity:Zone:THERMAL ZONE 29,hourly; !- [J]
Output:Meter,InteriorEquipment:Electricity:Zone:THERMAL ZONE 3,hourly; !- [J]
Output:Meter:Cumulative,InteriorEquipment:Electricity:Zone:THERMAL ZONE 3,hourly; !- [J]
Output:Meter,InteriorEquipment:Electricity:Zone:THERMAL ZONE 30,hourly; !- [J]
Output:Meter:Cumulative,InteriorEquipment:Electricity:Zone:THERMAL ZONE 30,hourly; !- [J]
Output:Meter,InteriorEquipment:Electricity:Zone:THERMAL ZONE 31,hourly; !- [J]
Output:Meter:Cumulative,InteriorEquipment:Electricity:Zone:THERMAL ZONE 31,hourly; !- [J]
Output:Meter,InteriorEquipment:Electricity:Zone:THERMAL ZONE 32,hourly; !- [J]
Output:Meter:Cumulative,InteriorEquipment:Electricity:Zone:THERMAL ZONE 32,hourly; !- [J]
Output:Meter,InteriorEquipment:Electricity:Zone:THERMAL ZONE 33,hourly; !- [J]
Output:Meter:Cumulative,InteriorEquipment:Electricity:Zone:THERMAL ZONE 33,hourly; !- [J]
Output:Meter,InteriorEquipment:Electricity:Zone:THERMAL ZONE 34,hourly; !- [J]
Output:Meter:Cumulative,InteriorEquipment:Electricity:Zone:THERMAL ZONE 34,hourly; !- [J]
Output:Meter,InteriorEquipment:Electricity:Zone:THERMAL ZONE 35,hourly; !- [J]
Output:Meter:Cumulative,InteriorEquipment:Electricity:Zone:THERMAL ZONE 35,hourly; !- [J]
Output:Meter,InteriorEquipment:Electricity:Zone:THERMAL ZONE 36,hourly; !- [J]
Output:Meter:Cumulative,InteriorEquipment:Electricity:Zone:THERMAL ZONE 36,hourly; !- [J]
Output:Meter,InteriorEquipment:Electricity:Zone:THERMAL ZONE 37,hourly; !- [J]
Output:Meter:Cumulative,InteriorEquipment:Electricity:Zone:THERMAL ZONE 37,hourly; !- [J]
Output:Meter,InteriorEquipment:Electricity:Zone:THERMAL ZONE 38,hourly; !- [J]
Output:Meter:Cumulative,InteriorEquipment:Electricity:Zone:THERMAL ZONE 38,hourly; !- [J]
Output:Meter,InteriorEquipment:Electricity:Zone:THERMAL ZONE 39,hourly; !- [J]
Output:Meter:Cumulative,InteriorEquipment:Electricity:Zone:THERMAL ZONE 39,hourly; !- [J]
Output:Meter,InteriorEquipment:Electricity:Zone:THERMAL ZONE 4,hourly; !- [J]
Output:Meter:Cumulative,InteriorEquipment:Electricity:Zone:THERMAL ZONE 4,hourly; !- [J]
Output:Meter,InteriorEquipment:Electricity:Zone:THERMAL ZONE 40,hourly; !- [J]
Output:Meter:Cumulative,InteriorEquipment:Electricity:Zone:THERMAL ZONE 40,hourly; !- [J]
Output:Meter,InteriorEquipment:Electricity:Zone:THERMAL ZONE 5,hourly; !- [J]
Output:Meter:Cumulative,InteriorEquipment:Electricity:Zone:THERMAL ZONE 5,hourly; !- [J]
Output:Meter,InteriorEquipment:Electricity:Zone:THERMAL ZONE 6,hourly; !- [J]
Output:Meter:Cumulative,InteriorEquipment:Electricity:Zone:THERMAL ZONE 6,hourly; !- [J]
Output:Meter,InteriorEquipment:Electricity:Zone:THERMAL ZONE 7,hourly; !- [J]
Output:Meter:Cumulative,InteriorEquipment:Electricity:Zone:THERMAL ZONE 7,hourly; !- [J]
Output:Meter,InteriorEquipment:Electricity:Zone:THERMAL ZONE 8,hourly; !- [J]
Output:Meter:Cumulative,InteriorEquipment:Electricity:Zone:THERMAL ZONE 8,hourly; !- [J]
Output:Meter,InteriorEquipment:Electricity:Zone:THERMAL ZONE 9,hourly; !- [J]
Output:Meter:Cumulative,InteriorEquipment:Electricity:Zone:THERMAL ZONE 9,hourly; !- [J]
Output:Meter,EnergyTransfer:Facility,hourly; !- [J]
Output:Meter:Cumulative,EnergyTransfer:Facility,hourly; !- [J]
Output:Meter,EnergyTransfer:Building,hourly; !- [J]
Output:Meter:Cumulative,EnergyTransfer:Building,hourly; !- [J]
Output:Meter,EnergyTransfer:Zone:THERMAL ZONE 1,hourly; !- [J]
Output:Meter:Cumulative,EnergyTransfer:Zone:THERMAL ZONE 1,hourly; !- [J]
Output:Meter,Heating:EnergyTransfer,hourly; !- [J]
Output:Meter:Cumulative,Heating:EnergyTransfer,hourly; !- [J]
Output:Meter,Heating:EnergyTransfer:Zone:THERMAL ZONE 1,hourly; !- [J]
Output:Meter:Cumulative,Heating:EnergyTransfer:Zone:THERMAL ZONE 1,hourly; !- [J]
Output:Meter,Cooling:EnergyTransfer,hourly; !- [J]
Output:Meter:Cumulative,Cooling:EnergyTransfer,hourly; !- [J]
Output:Meter,Cooling:EnergyTransfer:Zone:THERMAL ZONE 1,hourly; !- [J]
Output:Meter:Cumulative,Cooling:EnergyTransfer:Zone:THERMAL ZONE 1,hourly; !- [J]
Output:Meter,EnergyTransfer:Zone:THERMAL ZONE 10,hourly; !- [J]
Output:Meter:Cumulative,EnergyTransfer:Zone:THERMAL ZONE 10,hourly; !- [J]
Output:Meter,Heating:EnergyTransfer:Zone:THERMAL ZONE 10,hourly; !- [J]
Output:Meter:Cumulative,Heating:EnergyTransfer:Zone:THERMAL ZONE 10,hourly; !- [J]
Output:Meter,Cooling:EnergyTransfer:Zone:THERMAL ZONE 10,hourly; !- [J]
Output:Meter:Cumulative,Cooling:EnergyTransfer:Zone:THERMAL ZONE 10,hourly; !- [J]
Output:Meter,EnergyTransfer:Zone:THERMAL ZONE 11,hourly; !- [J]
Output:Meter:Cumulative,EnergyTransfer:Zone:THERMAL ZONE 11,hourly; !- [J]
Output:Meter,Heating:EnergyTransfer:Zone:THERMAL ZONE 11,hourly; !- [J]
Output:Meter:Cumulative,Heating:EnergyTransfer:Zone:THERMAL ZONE 11,hourly; !- [J]
Output:Meter,Cooling:EnergyTransfer:Zone:THERMAL ZONE 11,hourly; !- [J]
Output:Meter:Cumulative,Cooling:EnergyTransfer:Zone:THERMAL ZONE 11,hourly; !- [J]
Output:Meter,EnergyTransfer:Zone:THERMAL ZONE 12,hourly; !- [J]
Output:Meter:Cumulative,EnergyTransfer:Zone:THERMAL ZONE 12,hourly; !- [J]
Output:Meter,Heating:EnergyTransfer:Zone:THERMAL ZONE 12,hourly; !- [J]
Output:Meter:Cumulative,Heating:EnergyTransfer:Zone:THERMAL ZONE 12,hourly; !- [J]
Output:Meter,Cooling:EnergyTransfer:Zone:THERMAL ZONE 12,hourly; !- [J]
Output:Meter:Cumulative,Cooling:EnergyTransfer:Zone:THERMAL ZONE 12,hourly; !- [J]
Output:Meter,EnergyTransfer:Zone:THERMAL ZONE 13,hourly; !- [J]
Output:Meter:Cumulative,EnergyTransfer:Zone:THERMAL ZONE 13,hourly; !- [J]
Output:Meter,Heating:EnergyTransfer:Zone:THERMAL ZONE 13,hourly; !- [J]
Output:Meter:Cumulative,Heating:EnergyTransfer:Zone:THERMAL ZONE 13,hourly; !- [J]
Output:Meter,Cooling:EnergyTransfer:Zone:THERMAL ZONE 13,hourly; !- [J]
Output:Meter:Cumulative,Cooling:EnergyTransfer:Zone:THERMAL ZONE 13,hourly; !- [J]
Output:Meter,EnergyTransfer:Zone:THERMAL ZONE 14,hourly; !- [J]
Output:Meter:Cumulative,EnergyTransfer:Zone:THERMAL ZONE 14,hourly; !- [J]
Output:Meter,Heating:EnergyTransfer:Zone:THERMAL ZONE 14,hourly; !- [J]
Output:Meter:Cumulative,Heating:EnergyTransfer:Zone:THERMAL ZONE 14,hourly; !- [J]
Output:Meter,Cooling:EnergyTransfer:Zone:THERMAL ZONE 14,hourly; !- [J]
Output:Meter:Cumulative,Cooling:EnergyTransfer:Zone:THERMAL ZONE 14,hourly; !- [J]
Output:Meter,EnergyTransfer:Zone:THERMAL ZONE 15,hourly; !- [J]
Output:Meter:Cumulative,EnergyTransfer:Zone:THERMAL ZONE 15,hourly; !- [J]
Output:Meter,Heating:EnergyTransfer:Zone:THERMAL ZONE 15,hourly; !- [J]
Output:Meter:Cumulative,Heating:EnergyTransfer:Zone:THERMAL ZONE 15,hourly; !- [J]
Output:Meter,Cooling:EnergyTransfer:Zone:THERMAL ZONE 15,hourly; !- [J]
Output:Meter:Cumulative,Cooling:EnergyTransfer:Zone:THERMAL ZONE 15,hourly; !- [J]
Output:Meter,EnergyTransfer:Zone:THERMAL ZONE 16,hourly; !- [J]
Output:Meter:Cumulative,EnergyTransfer:Zone:THERMAL ZONE 16,hourly; !- [J]
Output:Meter,Heating:EnergyTransfer:Zone:THERMAL ZONE 16,hourly; !- [J]
Output:Meter:Cumulative,Heating:EnergyTransfer:Zone:THERMAL ZONE 16,hourly; !- [J]
Output:Meter,Cooling:EnergyTransfer:Zone:THERMAL ZONE 16,hourly; !- [J]
Output:Meter:Cumulative,Cooling:EnergyTransfer:Zone:THERMAL ZONE 16,hourly; !- [J]
Output:Meter,EnergyTransfer:Zone:THERMAL ZONE 17,hourly; !- [J]
Output:Meter:Cumulative,EnergyTransfer:Zone:THERMAL ZONE 17,hourly; !- [J]
Output:Meter,Heating:EnergyTransfer:Zone:THERMAL ZONE 17,hourly; !- [J]
Output:Meter:Cumulative,Heating:EnergyTransfer:Zone:THERMAL ZONE 17,hourly; !- [J]
Output:Meter,Cooling:EnergyTransfer:Zone:THERMAL ZONE 17,hourly; !- [J]
Output:Meter:Cumulative,Cooling:EnergyTransfer:Zone:THERMAL ZONE 17,hourly; !- [J]
Output:Meter,EnergyTransfer:Zone:THERMAL ZONE 18,hourly; !- [J]
Output:Meter:Cumulative,EnergyTransfer:Zone:THERMAL ZONE 18,hourly; !- [J]
Output:Meter,Heating:EnergyTransfer:Zone:THERMAL ZONE 18,hourly; !- [J]
Output:Meter:Cumulative,Heating:EnergyTransfer:Zone:THERMAL ZONE 18,hourly; !- [J]
Output:Meter,Cooling:EnergyTransfer:Zone:THERMAL ZONE 18,hourly; !- [J]
Output:Meter:Cumulative,Cooling:EnergyTransfer:Zone:THERMAL ZONE 18,hourly; !- [J]
Output:Meter,EnergyTransfer:Zone:THERMAL ZONE 19,hourly; !- [J]
Output:Meter:Cumulative,EnergyTransfer:Zone:THERMAL ZONE 19,hourly; !- [J]
Output:Meter,Heating:EnergyTransfer:Zone:THERMAL ZONE 19,hourly; !- [J]
Output:Meter:Cumulative,Heating:EnergyTransfer:Zone:THERMAL ZONE 19,hourly; !- [J]
Output:Meter,Cooling:EnergyTransfer:Zone:THERMAL ZONE 19,hourly; !- [J]
Output:Meter:Cumulative,Cooling:EnergyTransfer:Zone:THERMAL ZONE 19,hourly; !- [J]
Output:Meter,EnergyTransfer:Zone:THERMAL ZONE 2,hourly; !- [J]
Output:Meter:Cumulative,EnergyTransfer:Zone:THERMAL ZONE 2,hourly; !- [J]
Output:Meter,Heating:EnergyTransfer:Zone:THERMAL ZONE 2,hourly; !- [J]
Output:Meter:Cumulative,Heating:EnergyTransfer:Zone:THERMAL ZONE 2,hourly; !- [J]
Output:Meter,Cooling:EnergyTransfer:Zone:THERMAL ZONE 2,hourly; !- [J]
Output:Meter:Cumulative,Cooling:EnergyTransfer:Zone:THERMAL ZONE 2,hourly; !- [J]
Output:Meter,EnergyTransfer:Zone:THERMAL ZONE 20,hourly; !- [J]
Output:Meter:Cumulative,EnergyTransfer:Zone:THERMAL ZONE 20,hourly; !- [J]
Output:Meter,Heating:EnergyTransfer:Zone:THERMAL ZONE 20,hourly; !- [J]
Output:Meter:Cumulative,Heating:EnergyTransfer:Zone:THERMAL ZONE 20,hourly; !- [J]
Output:Meter,Cooling:EnergyTransfer:Zone:THERMAL ZONE 20,hourly; !- [J]
Output:Meter:Cumulative,Cooling:EnergyTransfer:Zone:THERMAL ZONE 20,hourly; !- [J]
Output:Meter,EnergyTransfer:Zone:THERMAL ZONE 21,hourly; !- [J]
Output:Meter:Cumulative,EnergyTransfer:Zone:THERMAL ZONE 21,hourly; !- [J]
Output:Meter,Heating:EnergyTransfer:Zone:THERMAL ZONE 21,hourly; !- [J]
Output:Meter:Cumulative,Heating:EnergyTransfer:Zone:THERMAL ZONE 21,hourly; !- [J]
Output:Meter,Cooling:EnergyTransfer:Zone:THERMAL ZONE 21,hourly; !- [J]
Output:Meter:Cumulative,Cooling:EnergyTransfer:Zone:THERMAL ZONE 21,hourly; !- [J]
Output:Meter,EnergyTransfer:Zone:THERMAL ZONE 22,hourly; !- [J]
Output:Meter:Cumulative,EnergyTransfer:Zone:THERMAL ZONE 22,hourly; !- [J]
Output:Meter,Heating:EnergyTransfer:Zone:THERMAL ZONE 22,hourly; !- [J]
Output:Meter:Cumulative,Heating:EnergyTransfer:Zone:THERMAL ZONE 22,hourly; !- [J]
Output:Meter,Cooling:EnergyTransfer:Zone:THERMAL ZONE 22,hourly; !- [J]
Output:Meter:Cumulative,Cooling:EnergyTransfer:Zone:THERMAL ZONE 22,hourly; !- [J]
Output:Meter,EnergyTransfer:Zone:THERMAL ZONE 23,hourly; !- [J]
Output:Meter:Cumulative,EnergyTransfer:Zone:THERMAL ZONE 23,hourly; !- [J]
Output:Meter,Heating:EnergyTransfer:Zone:THERMAL ZONE 23,hourly; !- [J]
Output:Meter:Cumulative,Heating:EnergyTransfer:Zone:THERMAL ZONE 23,hourly; !- [J]
Output:Meter,Cooling:EnergyTransfer:Zone:THERMAL ZONE 23,hourly; !- [J]
Output:Meter:Cumulative,Cooling:EnergyTransfer:Zone:THERMAL ZONE 23,hourly; !- [J]
Output:Meter,EnergyTransfer:Zone:THERMAL ZONE 24,hourly; !- [J]
Output:Meter:Cumulative,EnergyTransfer:Zone:THERMAL ZONE 24,hourly; !- [J]
Output:Meter,Heating:EnergyTransfer:Zone:THERMAL ZONE 24,hourly; !- [J]
Output:Meter:Cumulative,Heating:EnergyTransfer:Zone:THERMAL ZONE 24,hourly; !- [J]
Output:Meter,Cooling:EnergyTransfer:Zone:THERMAL ZONE 24,hourly; !- [J]
Output:Meter:Cumulative,Cooling:EnergyTransfer:Zone:THERMAL ZONE 24,hourly; !- [J]
Output:Meter,EnergyTransfer:Zone:THERMAL ZONE 25,hourly; !- [J]
Output:Meter:Cumulative,EnergyTransfer:Zone:THERMAL ZONE 25,hourly; !- [J]
Output:Meter,Heating:EnergyTransfer:Zone:THERMAL ZONE 25,hourly; !- [J]
Output:Meter:Cumulative,Heating:EnergyTransfer:Zone:THERMAL ZONE 25,hourly; !- [J]
Output:Meter,Cooling:EnergyTransfer:Zone:THERMAL ZONE 25,hourly; !- [J]
Output:Meter:Cumulative,Cooling:EnergyTransfer:Zone:THERMAL ZONE 25,hourly; !- [J]
Output:Meter,EnergyTransfer:Zone:THERMAL ZONE 26,hourly; !- [J]
Output:Meter:Cumulative,EnergyTransfer:Zone:THERMAL ZONE 26,hourly; !- [J]
Output:Meter,Heating:EnergyTransfer:Zone:THERMAL ZONE 26,hourly; !- [J]
Output:Meter:Cumulative,Heating:EnergyTransfer:Zone:THERMAL ZONE 26,hourly; !- [J]
Output:Meter,Cooling:EnergyTransfer:Zone:THERMAL ZONE 26,hourly; !- [J]
Output:Meter:Cumulative,Cooling:EnergyTransfer:Zone:THERMAL ZONE 26,hourly; !- [J]
Output:Meter,EnergyTransfer:Zone:THERMAL ZONE 27,hourly; !- [J]
Output:Meter:Cumulative,EnergyTransfer:Zone:THERMAL ZONE 27,hourly; !- [J]
Output:Meter,Heating:EnergyTransfer:Zone:THERMAL ZONE 27,hourly; !- [J]
Output:Meter:Cumulative,Heating:EnergyTransfer:Zone:THERMAL ZONE 27,hourly; !- [J]
Output:Meter,Cooling:EnergyTransfer:Zone:THERMAL ZONE 27,hourly; !- [J]
Output:Meter:Cumulative,Cooling:EnergyTransfer:Zone:THERMAL ZONE 27,hourly; !- [J]
Output:Meter,EnergyTransfer:Zone:THERMAL ZONE 28,hourly; !- [J]
Output:Meter:Cumulative,EnergyTransfer:Zone:THERMAL ZONE 28,hourly; !- [J]
Output:Meter,Heating:EnergyTransfer:Zone:THERMAL ZONE 28,hourly; !- [J]
Output:Meter:Cumulative,Heating:EnergyTransfer:Zone:THERMAL ZONE 28,hourly; !- [J]
Output:Meter,Cooling:EnergyTransfer:Zone:THERMAL ZONE 28,hourly; !- [J]
Output:Meter:Cumulative,Cooling:EnergyTransfer:Zone:THERMAL ZONE 28,hourly; !- [J]
Output:Meter,EnergyTransfer:Zone:THERMAL ZONE 29,hourly; !- [J]
Output:Meter:Cumulative,EnergyTransfer:Zone:THERMAL ZONE 29,hourly; !- [J]
Output:Meter,Heating:EnergyTransfer:Zone:THERMAL ZONE 29,hourly; !- [J]
Output:Meter:Cumulative,Heating:EnergyTransfer:Zone:THERMAL ZONE 29,hourly; !- [J]
Output:Meter,Cooling:EnergyTransfer:Zone:THERMAL ZONE 29,hourly; !- [J]
Output:Meter:Cumulative,Cooling:EnergyTransfer:Zone:THERMAL ZONE 29,hourly; !- [J]
Output:Meter,EnergyTransfer:Zone:THERMAL ZONE 3,hourly; !- [J]
Output:Meter:Cumulative,EnergyTransfer:Zone:THERMAL ZONE 3,hourly; !- [J]
Output:Meter,Heating:EnergyTransfer:Zone:THERMAL ZONE 3,hourly; !- [J]
Output:Meter:Cumulative,Heating:EnergyTransfer:Zone:THERMAL ZONE 3,hourly; !- [J]
Output:Meter,Cooling:EnergyTransfer:Zone:THERMAL ZONE 3,hourly; !- [J]
Output:Meter:Cumulative,Cooling:EnergyTransfer:Zone:THERMAL ZONE 3,hourly; !- [J]
Output:Meter,EnergyTransfer:Zone:THERMAL ZONE 30,hourly; !- [J]
Output:Meter:Cumulative,EnergyTransfer:Zone:THERMAL ZONE 30,hourly; !- [J]
Output:Meter,Heating:EnergyTransfer:Zone:THERMAL ZONE 30,hourly; !- [J]
Output:Meter:Cumulative,Heating:EnergyTransfer:Zone:THERMAL ZONE 30,hourly; !- [J]
Output:Meter,Cooling:EnergyTransfer:Zone:THERMAL ZONE 30,hourly; !- [J]
Output:Meter:Cumulative,Cooling:EnergyTransfer:Zone:THERMAL ZONE 30,hourly; !- [J]
Output:Meter,EnergyTransfer:Zone:THERMAL ZONE 31,hourly; !- [J]
Output:Meter:Cumulative,EnergyTransfer:Zone:THERMAL ZONE 31,hourly; !- [J]
Output:Meter,Heating:EnergyTransfer:Zone:THERMAL ZONE 31,hourly; !- [J]
Output:Meter:Cumulative,Heating:EnergyTransfer:Zone:THERMAL ZONE 31,hourly; !- [J]
Output:Meter,Cooling:EnergyTransfer:Zone:THERMAL ZONE 31,hourly; !- [J]
Output:Meter:Cumulative,Cooling:EnergyTransfer:Zone:THERMAL ZONE 31,hourly; !- [J]
Output:Meter,EnergyTransfer:Zone:THERMAL ZONE 32,hourly; !- [J]
Output:Meter:Cumulative,EnergyTransfer:Zone:THERMAL ZONE 32,hourly; !- [J]
Output:Meter,Heating:EnergyTransfer:Zone:THERMAL ZONE 32,hourly; !- [J]
Output:Meter:Cumulative,Heating:EnergyTransfer:Zone:THERMAL ZONE 32,hourly; !- [J]
Output:Meter,Cooling:EnergyTransfer:Zone:THERMAL ZONE 32,hourly; !- [J]
Output:Meter:Cumulative,Cooling:EnergyTransfer:Zone:THERMAL ZONE 32,hourly; !- [J]
Output:Meter,EnergyTransfer:Zone:THERMAL ZONE 33,hourly; !- [J]
Output:Meter:Cumulative,EnergyTransfer:Zone:THERMAL ZONE 33,hourly; !- [J]
Output:Meter,Heating:EnergyTransfer:Zone:THERMAL ZONE 33,hourly; !- [J]
Output:Meter:Cumulative,Heating:EnergyTransfer:Zone:THERMAL ZONE 33,hourly; !- [J]
Output:Meter,Cooling:EnergyTransfer:Zone:THERMAL ZONE 33,hourly; !- [J]
Output:Meter:Cumulative,Cooling:EnergyTransfer:Zone:THERMAL ZONE 33,hourly; !- [J]
Output:Meter,EnergyTransfer:Zone:THERMAL ZONE 34,hourly; !- [J]
Output:Meter:Cumulative,EnergyTransfer:Zone:THERMAL ZONE 34,hourly; !- [J]
Output:Meter,Heating:EnergyTransfer:Zone:THERMAL ZONE 34,hourly; !- [J]
Output:Meter:Cumulative,Heating:EnergyTransfer:Zone:THERMAL ZONE 34,hourly; !- [J]
Output:Meter,Cooling:EnergyTransfer:Zone:THERMAL ZONE 34,hourly; !- [J]
Output:Meter:Cumulative,Cooling:EnergyTransfer:Zone:THERMAL ZONE 34,hourly; !- [J]
Output:Meter,EnergyTransfer:Zone:THERMAL ZONE 35,hourly; !- [J]
Output:Meter:Cumulative,EnergyTransfer:Zone:THERMAL ZONE 35,hourly; !- [J]
Output:Meter,Heating:EnergyTransfer:Zone:THERMAL ZONE 35,hourly; !- [J]
Output:Meter:Cumulative,Heating:EnergyTransfer:Zone:THERMAL ZONE 35,hourly; !- [J]
Output:Meter,Cooling:EnergyTransfer:Zone:THERMAL ZONE 35,hourly; !- [J]
Output:Meter:Cumulative,Cooling:EnergyTransfer:Zone:THERMAL ZONE 35,hourly; !- [J]
Output:Meter,EnergyTransfer:Zone:THERMAL ZONE 36,hourly; !- [J]
Output:Meter:Cumulative,EnergyTransfer:Zone:THERMAL ZONE 36,hourly; !- [J]
Output:Meter,Heating:EnergyTransfer:Zone:THERMAL ZONE 36,hourly; !- [J]
Output:Meter:Cumulative,Heating:EnergyTransfer:Zone:THERMAL ZONE 36,hourly; !- [J]
Output:Meter,Cooling:EnergyTransfer:Zone:THERMAL ZONE 36,hourly; !- [J]
Output:Meter:Cumulative,Cooling:EnergyTransfer:Zone:THERMAL ZONE 36,hourly; !- [J]
Output:Meter,EnergyTransfer:Zone:THERMAL ZONE 37,hourly; !- [J]
Output:Meter:Cumulative,EnergyTransfer:Zone:THERMAL ZONE 37,hourly; !- [J]
Output:Meter,Heating:EnergyTransfer:Zone:THERMAL ZONE 37,hourly; !- [J]
Output:Meter:Cumulative,Heating:EnergyTransfer:Zone:THERMAL ZONE 37,hourly; !- [J]
Output:Meter,Cooling:EnergyTransfer:Zone:THERMAL ZONE 37,hourly; !- [J]
Output:Meter:Cumulative,Cooling:EnergyTransfer:Zone:THERMAL ZONE 37,hourly; !- [J]
Output:Meter,EnergyTransfer:Zone:THERMAL ZONE 38,hourly; !- [J]
Output:Meter:Cumulative,EnergyTransfer:Zone:THERMAL ZONE 38,hourly; !- [J]
Output:Meter,Heating:EnergyTransfer:Zone:THERMAL ZONE 38,hourly; !- [J]
Output:Meter:Cumulative,Heating:EnergyTransfer:Zone:THERMAL ZONE 38,hourly; !- [J]
Output:Meter,Cooling:EnergyTransfer:Zone:THERMAL ZONE 38,hourly; !- [J]
Output:Meter:Cumulative,Cooling:EnergyTransfer:Zone:THERMAL ZONE 38,hourly; !- [J]
Output:Meter,EnergyTransfer:Zone:THERMAL ZONE 39,hourly; !- [J]
Output:Meter:Cumulative,EnergyTransfer:Zone:THERMAL ZONE 39,hourly; !- [J]
Output:Meter,Heating:EnergyTransfer:Zone:THERMAL ZONE 39,hourly; !- [J]
Output:Meter:Cumulative,Heating:EnergyTransfer:Zone:THERMAL ZONE 39,hourly; !- [J]
Output:Meter,Cooling:EnergyTransfer:Zone:THERMAL ZONE 39,hourly; !- [J]
Output:Meter:Cumulative,Cooling:EnergyTransfer:Zone:THERMAL ZONE 39,hourly; !- [J]
Output:Meter,EnergyTransfer:Zone:THERMAL ZONE 4,hourly; !- [J]
Output:Meter:Cumulative,EnergyTransfer:Zone:THERMAL ZONE 4,hourly; !- [J]
Output:Meter,Heating:EnergyTransfer:Zone:THERMAL ZONE 4,hourly; !- [J]
Output:Meter:Cumulative,Heating:EnergyTransfer:Zone:THERMAL ZONE 4,hourly; !- [J]
Output:Meter,Cooling:EnergyTransfer:Zone:THERMAL ZONE 4,hourly; !- [J]
Output:Meter:Cumulative,Cooling:EnergyTransfer:Zone:THERMAL ZONE 4,hourly; !- [J]
Output:Meter,EnergyTransfer:Zone:THERMAL ZONE 40,hourly; !- [J]
Output:Meter:Cumulative,EnergyTransfer:Zone:THERMAL ZONE 40,hourly; !- [J]
Output:Meter,Heating:EnergyTransfer:Zone:THERMAL ZONE 40,hourly; !- [J]
Output:Meter:Cumulative,Heating:EnergyTransfer:Zone:THERMAL ZONE 40,hourly; !- [J]
Output:Meter,Cooling:EnergyTransfer:Zone:THERMAL ZONE 40,hourly; !- [J]
Output:Meter:Cumulative,Cooling:EnergyTransfer:Zone:THERMAL ZONE 40,hourly; !- [J]
Output:Meter,EnergyTransfer:Zone:THERMAL ZONE 5,hourly; !- [J]
Output:Meter:Cumulative,EnergyTransfer:Zone:THERMAL ZONE 5,hourly; !- [J]
Output:Meter,Heating:EnergyTransfer:Zone:THERMAL ZONE 5,hourly; !- [J]
Output:Meter:Cumulative,Heating:EnergyTransfer:Zone:THERMAL ZONE 5,hourly; !- [J]
Output:Meter,Cooling:EnergyTransfer:Zone:THERMAL ZONE 5,hourly; !- [J]
Output:Meter:Cumulative,Cooling:EnergyTransfer:Zone:THERMAL ZONE 5,hourly; !- [J]
Output:Meter,EnergyTransfer:Zone:THERMAL ZONE 6,hourly; !- [J]
Output:Meter:Cumulative,EnergyTransfer:Zone:THERMAL ZONE 6,hourly; !- [J]
Output:Meter,Heating:EnergyTransfer:Zone:THERMAL ZONE 6,hourly; !- [J]
Output:Meter:Cumulative,Heating:EnergyTransfer:Zone:THERMAL ZONE 6,hourly; !- [J]
Output:Meter,Cooling:EnergyTransfer:Zone:THERMAL ZONE 6,hourly; !- [J]
Output:Meter:Cumulative,Cooling:EnergyTransfer:Zone:THERMAL ZONE 6,hourly; !- [J]
Output:Meter,EnergyTransfer:Zone:THERMAL ZONE 7,hourly; !- [J]
Output:Meter:Cumulative,EnergyTransfer:Zone:THERMAL ZONE 7,hourly; !- [J]
Output:Meter,Heating:EnergyTransfer:Zone:THERMAL ZONE 7,hourly; !- [J]
Output:Meter:Cumulative,Heating:EnergyTransfer:Zone:THERMAL ZONE 7,hourly; !- [J]
Output:Meter,Cooling:EnergyTransfer:Zone:THERMAL ZONE 7,hourly; !- [J]
Output:Meter:Cumulative,Cooling:EnergyTransfer:Zone:THERMAL ZONE 7,hourly; !- [J]
Output:Meter,EnergyTransfer:Zone:THERMAL ZONE 8,hourly; !- [J]
Output:Meter:Cumulative,EnergyTransfer:Zone:THERMAL ZONE 8,hourly; !- [J]
Output:Meter,Heating:EnergyTransfer:Zone:THERMAL ZONE 8,hourly; !- [J]
Output:Meter:Cumulative,Heating:EnergyTransfer:Zone:THERMAL ZONE 8,hourly; !- [J]
Output:Meter,Cooling:EnergyTransfer:Zone:THERMAL ZONE 8,hourly; !- [J]
Output:Meter:Cumulative,Cooling:EnergyTransfer:Zone:THERMAL ZONE 8,hourly; !- [J]
Output:Meter,EnergyTransfer:Zone:THERMAL ZONE 9,hourly; !- [J]
Output:Meter:Cumulative,EnergyTransfer:Zone:THERMAL ZONE 9,hourly; !- [J]
Output:Meter,Heating:EnergyTransfer:Zone:THERMAL ZONE 9,hourly; !- [J]
Output:Meter:Cumulative,Heating:EnergyTransfer:Zone:THERMAL ZONE 9,hourly; !- [J]
Output:Meter,Cooling:EnergyTransfer:Zone:THERMAL ZONE 9,hourly; !- [J]
Output:Meter:Cumulative,Cooling:EnergyTransfer:Zone:THERMAL ZONE 9,hourly; !- [J]
Output:Meter,ElectricityPurchased:Facility,hourly; !- [J]
Output:Meter:Cumulative,ElectricityPurchased:Facility,hourly; !- [J]
Output:Meter,ElectricityPurchased:Plant,hourly; !- [J]
Output:Meter:Cumulative,ElectricityPurchased:Plant,hourly; !- [J]
Output:Meter,Cogeneration:ElectricityPurchased,hourly; !- [J]
Output:Meter:Cumulative,Cogeneration:ElectricityPurchased,hourly; !- [J]
Output:Meter,ElectricitySurplusSold:Facility,hourly; !- [J]
Output:Meter:Cumulative,ElectricitySurplusSold:Facility,hourly; !- [J]
Output:Meter,ElectricitySurplusSold:Plant,hourly; !- [J]
Output:Meter:Cumulative,ElectricitySurplusSold:Plant,hourly; !- [J]
Output:Meter,Cogeneration:ElectricitySurplusSold,hourly; !- [J]
Output:Meter:Cumulative,Cogeneration:ElectricitySurplusSold,hourly; !- [J]
Output:Meter,ElectricityNet:Facility,hourly; !- [J]
Output:Meter:Cumulative,ElectricityNet:Facility,hourly; !- [J]
Output:Meter,ElectricityNet:Plant,hourly; !- [J]
Output:Meter:Cumulative,ElectricityNet:Plant,hourly; !- [J]
Output:Meter,Cogeneration:ElectricityNet,hourly; !- [J]
Output:Meter:Cumulative,Cogeneration:ElectricityNet,hourly; !- [J]
Output:Meter,EnergyTransfer:HVAC,hourly; !- [J]
Output:Meter:Cumulative,EnergyTransfer:HVAC,hourly; !- [J]
Output:Meter,HeatingCoils:EnergyTransfer,hourly; !- [J]
Output:Meter:Cumulative,HeatingCoils:EnergyTransfer,hourly; !- [J]
Output:Meter,PlantLoopHeatingDemand:Facility,hourly; !- [J]
Output:Meter:Cumulative,PlantLoopHeatingDemand:Facility,hourly; !- [J]
Output:Meter,PlantLoopHeatingDemand:HVAC,hourly; !- [J]
Output:Meter:Cumulative,PlantLoopHeatingDemand:HVAC,hourly; !- [J]
Output:Meter,HeatingCoils:PlantLoopHeatingDemand,hourly; !- [J]
Output:Meter:Cumulative,HeatingCoils:PlantLoopHeatingDemand,hourly; !- [J]
Output:Meter,CoolingCoils:EnergyTransfer,hourly; !- [J]
Output:Meter:Cumulative,CoolingCoils:EnergyTransfer,hourly; !- [J]
Output:Meter,Electricity:HVAC,hourly; !- [J]
Output:Meter:Cumulative,Electricity:HVAC,hourly; !- [J]
Output:Meter,Cooling:Electricity,hourly; !- [J]
Output:Meter:Cumulative,Cooling:Electricity,hourly; !- [J]
Output:Meter,Fans:Electricity,hourly; !- [J]
Output:Meter:Cumulative,Fans:Electricity,hourly; !- [J]
Output:Meter,General:Fans:Electricity,hourly; !- [J]
Output:Meter:Cumulative,General:Fans:Electricity,hourly; !- [J]
Output:Meter,EnergyTransfer:Plant,hourly; !- [J]
Output:Meter:Cumulative,EnergyTransfer:Plant,hourly; !- [J]
Output:Meter,Boilers:EnergyTransfer,hourly; !- [J]
Output:Meter:Cumulative,Boilers:EnergyTransfer,hourly; !- [J]
Output:Meter,Gas:Facility,hourly; !- [J]
Output:Meter:Cumulative,Gas:Facility,hourly; !- [J]
Output:Meter,Gas:Plant,hourly; !- [J]
Output:Meter:Cumulative,Gas:Plant,hourly; !- [J]
Output:Meter,Heating:Gas,hourly; !- [J]
Output:Meter:Cumulative,Heating:Gas,hourly; !- [J]
Output:Meter,Boiler:Heating:Gas,hourly; !- [J]
Output:Meter:Cumulative,Boiler:Heating:Gas,hourly; !- [J]
Output:Meter,Electricity:Plant,hourly; !- [J]
Output:Meter:Cumulative,Electricity:Plant,hourly; !- [J]
Output:Meter,Heating:Electricity,hourly; !- [J]
Output:Meter:Cumulative,Heating:Electricity,hourly; !- [J]
Output:Meter,Boiler Parasitic:Heating:Electricity,hourly; !- [J]
Output:Meter:Cumulative,Boiler Parasitic:Heating:Electricity,hourly; !- [J]
Output:Meter,Pumps:Electricity,hourly; !- [J]
Output:Meter:Cumulative,Pumps:Electricity,hourly; !- [J]
Output:Meter,Source:Facility,hourly; !- [J]
Output:Meter:Cumulative,Source:Facility,hourly; !- [J]
Output:Meter,ElectricEmissions:Source,hourly; !- [J]
Output:Meter:Cumulative,ElectricEmissions:Source,hourly; !- [J]
Output:Meter,CO2:Facility,hourly; !- [kg]
Output:Meter:Cumulative,CO2:Facility,hourly; !- [kg]
Output:Meter,ElectricEmissions:CO2,hourly; !- [kg]
Output:Meter:Cumulative,ElectricEmissions:CO2,hourly; !- [kg]
Output:Meter,CO:Facility,hourly; !- [kg]
Output:Meter:Cumulative,CO:Facility,hourly; !- [kg]
Output:Meter,ElectricEmissions:CO,hourly; !- [kg]
Output:Meter:Cumulative,ElectricEmissions:CO,hourly; !- [kg]
Output:Meter,CH4:Facility,hourly; !- [kg]
Output:Meter:Cumulative,CH4:Facility,hourly; !- [kg]
Output:Meter,ElectricEmissions:CH4,hourly; !- [kg]
Output:Meter:Cumulative,ElectricEmissions:CH4,hourly; !- [kg]
Output:Meter,NOx:Facility,hourly; !- [kg]
Output:Meter:Cumulative,NOx:Facility,hourly; !- [kg]
Output:Meter,ElectricEmissions:NOx,hourly; !- [kg]
Output:Meter:Cumulative,ElectricEmissions:NOx,hourly; !- [kg]
Output:Meter,N2O:Facility,hourly; !- [kg]
Output:Meter:Cumulative,N2O:Facility,hourly; !- [kg]
Output:Meter,ElectricEmissions:N2O,hourly; !- [kg]
Output:Meter:Cumulative,ElectricEmissions:N2O,hourly; !- [kg]
Output:Meter,SO2:Facility,hourly; !- [kg]
Output:Meter:Cumulative,SO2:Facility,hourly; !- [kg]
Output:Meter,ElectricEmissions:SO2,hourly; !- [kg]
Output:Meter:Cumulative,ElectricEmissions:SO2,hourly; !- [kg]
Output:Meter,PM:Facility,hourly; !- [kg]
Output:Meter:Cumulative,PM:Facility,hourly; !- [kg]
Output:Meter,ElectricEmissions:PM,hourly; !- [kg]
Output:Meter:Cumulative,ElectricEmissions:PM,hourly; !- [kg]
Output:Meter,PM10:Facility,hourly; !- [kg]
Output:Meter:Cumulative,PM10:Facility,hourly; !- [kg]
Output:Meter,ElectricEmissions:PM10,hourly; !- [kg]
Output:Meter:Cumulative,ElectricEmissions:PM10,hourly; !- [kg]
Output:Meter,PM2.5:Facility,hourly; !- [kg]
Output:Meter:Cumulative,PM2.5:Facility,hourly; !- [kg]
Output:Meter,ElectricEmissions:PM2.5,hourly; !- [kg]
Output:Meter:Cumulative,ElectricEmissions:PM2.5,hourly; !- [kg]
Output:Meter,NH3:Facility,hourly; !- [kg]
Output:Meter:Cumulative,NH3:Facility,hourly; !- [kg]
Output:Meter,ElectricEmissions:NH3,hourly; !- [kg]
Output:Meter:Cumulative,ElectricEmissions:NH3,hourly; !- [kg]
Output:Meter,NMVOC:Facility,hourly; !- [kg]
Output:Meter:Cumulative,NMVOC:Facility,hourly; !- [kg]
Output:Meter,ElectricEmissions:NMVOC,hourly; !- [kg]
Output:Meter:Cumulative,ElectricEmissions:NMVOC,hourly; !- [kg]
Output:Meter,Hg:Facility,hourly; !- [kg]
Output:Meter:Cumulative,Hg:Facility,hourly; !- [kg]
Output:Meter,ElectricEmissions:Hg,hourly; !- [kg]
Output:Meter:Cumulative,ElectricEmissions:Hg,hourly; !- [kg]
Output:Meter,Pb:Facility,hourly; !- [kg]
Output:Meter:Cumulative,Pb:Facility,hourly; !- [kg]
Output:Meter,ElectricEmissions:Pb,hourly; !- [kg]
Output:Meter:Cumulative,ElectricEmissions:Pb,hourly; !- [kg]
Output:Meter,WaterEnvironmentalFactors:Facility,hourly; !- [L]
Output:Meter:Cumulative,WaterEnvironmentalFactors:Facility,hourly; !- [L]
Output:Meter,ElectricEmissions:WaterEnvironmentalFactors,hourly; !- [L]
Output:Meter:Cumulative,ElectricEmissions:WaterEnvironmentalFactors,hourly; !- [L]
Output:Meter,Nuclear High:Facility,hourly; !- [kg]
Output:Meter:Cumulative,Nuclear High:Facility,hourly; !- [kg]
Output:Meter,ElectricEmissions:Nuclear High,hourly; !- [kg]
Output:Meter:Cumulative,ElectricEmissions:Nuclear High,hourly; !- [kg]
Output:Meter,Nuclear Low:Facility,hourly; !- [m3]
Output:Meter:Cumulative,Nuclear Low:Facility,hourly; !- [m3]
Output:Meter,ElectricEmissions:Nuclear Low,hourly; !- [m3]
Output:Meter:Cumulative,ElectricEmissions:Nuclear Low,hourly; !- [m3]
Output:Meter,PurchasedElectricEmissions:Source,hourly; !- [J]
Output:Meter:Cumulative,PurchasedElectricEmissions:Source,hourly; !- [J]
Output:Meter,SoldElectricEmissions:Source,hourly; !- [J]
Output:Meter:Cumulative,SoldElectricEmissions:Source,hourly; !- [J]
Output:Meter,NaturalGasEmissions:Source,hourly; !- [J]
Output:Meter:Cumulative,NaturalGasEmissions:Source,hourly; !- [J]
Output:Meter,NaturalGasEmissions:CO2,hourly; !- [kg]
Output:Meter:Cumulative,NaturalGasEmissions:CO2,hourly; !- [kg]
Output:Meter,NaturalGasEmissions:CO,hourly; !- [kg]
Output:Meter:Cumulative,NaturalGasEmissions:CO,hourly; !- [kg]
Output:Meter,NaturalGasEmissions:CH4,hourly; !- [kg]
Output:Meter:Cumulative,NaturalGasEmissions:CH4,hourly; !- [kg]
Output:Meter,NaturalGasEmissions:NOx,hourly; !- [kg]
Output:Meter:Cumulative,NaturalGasEmissions:NOx,hourly; !- [kg]
Output:Meter,NaturalGasEmissions:N2O,hourly; !- [kg]
Output:Meter:Cumulative,NaturalGasEmissions:N2O,hourly; !- [kg]
Output:Meter,NaturalGasEmissions:SO2,hourly; !- [kg]
Output:Meter:Cumulative,NaturalGasEmissions:SO2,hourly; !- [kg]
Output:Meter,NaturalGasEmissions:PM,hourly; !- [kg]
Output:Meter:Cumulative,NaturalGasEmissions:PM,hourly; !- [kg]
Output:Meter,NaturalGasEmissions:PM10,hourly; !- [kg]
Output:Meter:Cumulative,NaturalGasEmissions:PM10,hourly; !- [kg]
Output:Meter,NaturalGasEmissions:PM2.5,hourly; !- [kg]
Output:Meter:Cumulative,NaturalGasEmissions:PM2.5,hourly; !- [kg]
Output:Meter,NaturalGasEmissions:NH3,hourly; !- [kg]
Output:Meter:Cumulative,NaturalGasEmissions:NH3,hourly; !- [kg]
Output:Meter,NaturalGasEmissions:NMVOC,hourly; !- [kg]
Output:Meter:Cumulative,NaturalGasEmissions:NMVOC,hourly; !- [kg]
Output:Meter,NaturalGasEmissions:Hg,hourly; !- [kg]
Output:Meter:Cumulative,NaturalGasEmissions:Hg,hourly; !- [kg]
Output:Meter,NaturalGasEmissions:Pb,hourly; !- [kg]
Output:Meter:Cumulative,NaturalGasEmissions:Pb,hourly; !- [kg]
Output:Meter,NaturalGasEmissions:WaterEnvironmentalFactors,hourly; !- [L]
Output:Meter:Cumulative,NaturalGasEmissions:WaterEnvironmentalFactors,hourly; !- [L]
Output:Meter,NaturalGasEmissions:Nuclear High,hourly; !- [kg]
Output:Meter:Cumulative,NaturalGasEmissions:Nuclear High,hourly; !- [kg]
Output:Meter,NaturalGasEmissions:Nuclear Low,hourly; !- [m3]
Output:Meter:Cumulative,NaturalGasEmissions:Nuclear Low,hourly; !- [m3]
Output:Meter,Carbon Equivalent:Facility,hourly; !- [kg]
Output:Meter:Cumulative,Carbon Equivalent:Facility,hourly; !- [kg]
Output:Meter,CarbonEquivalentEmissions:Carbon Equivalent,hourly; !- [kg]
Output:Meter:Cumulative,CarbonEquivalentEmissions:Carbon Equivalent,hourly; !- [kg]
