Program Version,EnergyPlus-Linux-OMP-64 8.0.0.008, YMD=2014.01.14 15:13
! <Version>, Version ID
 Version, 8.0
! <Timesteps per Hour>, #TimeSteps, Minutes per TimeStep {minutes}
 Timesteps per Hour,  4, 15
! <System Convergence Limits>, Minimum System TimeStep {minutes}, Max HVAC Iterations,  Minimum Plant Iterations, Maximum Plant Iterations
 System Convergence Limits, 1, 20, 2, 8
! <Simulation Control>, Do Zone Sizing, Do System Sizing, Do Plant Sizing, Do Design Days, Do Weather Simulation
 Simulation Control, Yes, Yes, Yes, Yes, Yes
! <Output Reporting Tolerances>, Tolerance for Time Heating Setpoint Not Met, Tolerance for Zone Cooling Setpoint Not Met Time
 Output Reporting Tolerances, 0.200, 0.200, 
! <Site:GroundTemperature:BuildingSurface>, Months From Jan to Dec {C}
 Site:GroundTemperature:BuildingSurface,  18.00,  18.00,  18.00,  18.00,  18.00,  18.00,  18.00,  18.00,  18.00,  18.00,  18.00,  18.00
! <Site:GroundTemperature:FCfactorMethod>, Months From Jan to Dec {C}
 Site:GroundTemperature:FCfactorMethod,  10.86,  10.57,  11.08,  11.88,  13.97,  15.58,  16.67,  17.00,  16.44,  15.19,  13.51,  11.96
! <Site:GroundTemperature:Shallow>, Months From Jan to Dec {C}
 Site:GroundTemperature:Shallow,  13.00,  13.00,  13.00,  13.00,  13.00,  13.00,  13.00,  13.00,  13.00,  13.00,  13.00,  13.00
! <Site:GroundTemperature:Deep>, Months From Jan to Dec {C}
 Site:GroundTemperature:Deep,  16.00,  16.00,  16.00,  16.00,  16.00,  16.00,  16.00,  16.00,  16.00,  16.00,  16.00,  16.00
! <Site:GroundReflectance>, Months From Jan to Dec {dimensionless}
 Site:GroundReflectance,  0.20,  0.20,  0.20,  0.20,  0.20,  0.20,  0.20,  0.20,  0.20,  0.20,  0.20,  0.20
! <Site:GroundReflectance:SnowModifier>, Normal, Daylighting {dimensionless}
 Site:GroundReflectance:SnowModifier,   1.000,   1.000
! <Site:GroundReflectance:Snow>, Months From Jan to Dec {dimensionless}
 Site:GroundReflectance:Snow,  0.20,  0.20,  0.20,  0.20,  0.20,  0.20,  0.20,  0.20,  0.20,  0.20,  0.20,  0.20
! <Site:GroundReflectance:Snow:Daylighting>, Months From Jan to Dec {dimensionless}
 Site:GroundReflectance:Snow:Daylighting,  0.20,  0.20,  0.20,  0.20,  0.20,  0.20,  0.20,  0.20,  0.20,  0.20,  0.20,  0.20
! <Environment:Weather Station>,Wind Sensor Height Above Ground {m},Wind Speed Profile Exponent {},Wind Speed Profile Boundary Layer Thickness {m},Air Temperature Sensor Height Above Ground {m},Wind Speed Modifier Coefficient [Internal],Temperature Modifier Coefficient [Internal]
Environment:Weather Station,10.000,0.140,270.000,1.500,1.586,9.750E-003
! <Site:Location>, Location Name, Latitude {N+/S- Deg}, Longitude {E+/W- Deg},  Time Zone Number {GMT+/-}, Elevation {m},  Standard Pressure at Elevation {Pa}, Standard RhoAir at Elevation
Site:Location,San Francisco Intl Ap CA USA TMY3 WMO#=724940,37.62,-122.40,-8.00,2.00,101301,1.2040
! <Building Information>, Building Name,North Axis {deg},Terrain,  Loads Convergence Tolerance Value,Temperature Convergence Tolerance Value,  Solar Distribution,Maximum Number of Warmup Days,Minimum Number of Warmup Days
 Building Information,Building 1,15.000,Suburbs,4.00000E-002,0.40000,FullExterior,25,6
! <Inside Convection Algorithm>, Algorithm {Simple | TARP | CeilingDiffuser | AdaptiveConvectionAlgorithm}
Inside Convection Algorithm,TARP
! <Outside Convection Algorithm>, Algorithm {SimpleCombined | TARP | MoWitt | DOE-2 | AdaptiveConvectionAlgorithm}
Outside Convection Algorithm,DOE-2
! <Sky Radiance Distribution>, Value {Anisotropic}
Sky Radiance Distribution,Anisotropic
! <Zone Air Solution Algorithm>, Value {ThirdOrderBackwardDifference | AnalyticalSolution | EulerMethod}
 Zone Air Solution Algorithm, ThirdOrderBackwardDifference
! <Zone Air Contaminant Balance Simulation>, Simulation {Yes/No}, Carbon Dioxide Concentration
 Zone Air Carbon Dioxide Balance Simulation, No,N/A
! <Zone Air Contaminant Balance Simulation>, Simulation {Yes/No}, Generic Contaminant Concentration
 Zone Air Generic Contaminant Balance Simulation, No,N/A
! <Environment:Site Atmospheric Variation>,Wind Speed Profile Exponent {},Wind Speed Profile Boundary Layer Thickness {m},Air Temperature Gradient Coefficient {K/m}
Environment:Site Atmospheric Variation,0.220,370.000,6.500000E-003
! <SurfaceGeometry>,Starting Corner,Vertex Input Direction,Coordinate System,Daylight Reference Point Coordinate System,Rectangular (Simple) Surface Coordinate System
 Surface Geometry,UpperLeftCorner,Counterclockwise,RelativeCoordinateSystem,RelativeCoordinateSystem,RelativeToZoneOrigin
! <Surface Heat Transfer Algorithm>, Value {CTF - ConductionTransferFunction | EMPD - MoisturePenetrationDepthConductionTransferFunction | CondFD - ConductionFiniteDifference | HAMT - CombinedHeatAndMoistureFiniteElement} - Description,Inside Surface Max Temperature Limit{C}, Surface Convection Coefficient Lower Limit {W/m2-K}, Surface Convection Coefficient Upper Limit {W/m2-K}
Surface Heat Transfer Algorithm, CTF - ConductionTransferFunction,200,0.10,1000.0
! <Shading Summary>, Number of Fixed Detached Shades, Number of Building Detached Shades, Number of Attached Shades
 Shading Summary,0,0,0
! <Zone Summary>, Number of Zones, Number of Zone Surfaces, Number of SubSurfaces
 Zone Summary,40,288,48
! <Zone Information>,Zone Name,North Axis {deg},Origin X-Coordinate {m},Origin Y-Coordinate {m},Origin Z-Coordinate {m},Centroid X-Coordinate {m},Centroid Y-Coordinate {m},Centroid Z-Coordinate {m},Type,Zone Multiplier,Zone List Multiplier,Minimum X {m},Maximum X {m},Minimum Y {m},Maximum Y {m},Minimum Z {m},Maximum Z {m},Ceiling Height {m},Volume {m3},Zone Inside Convection Algorithm {Simple-Detailed-CeilingDiffuser-TrombeWall},Zone Outside Convection Algorithm {Simple-Detailed-Tarp-MoWitt-DOE-2-BLAST}, Floor Area {m2},Exterior Gross Wall Area {m2},Exterior Net Wall Area {m2},Exterior Window Area {m2}, Number of Surfaces, Number of SubSurfaces, Number of Shading SubSurfaces,  Part of Total Building Area
 Zone Information, THERMAL ZONE 1,0.0,48.43,16.49,11.40,34.65,5.72,13.30,1,1,1,15.41,53.88,-1.51,12.94,11.40,15.20,3.80,560.73,TARP,DOE-2,147.56,280.36,238.31,42.05,6,2,0,Yes
 Zone Information, THERMAL ZONE 10,0.0,-34.10,16.49,7.60,12.52,19.04,9.50,1,1,1,-28.67,53.71,3.39,34.69,7.60,11.40,3.80,3227.09,TARP,DOE-2,849.23,313.61,266.57,47.04,6,1,0,Yes
 Zone Information, THERMAL ZONE 11,0.0,4.00,4.00,0.00,4.07,7.45,1.90,1,1,1,0.00,8.13,0.00,14.89,0.00,3.80,3.80,189.85,TARP,DOE-2,49.96,47.46,40.34,7.12,6,1,0,Yes
 Zone Information, THERMAL ZONE 12,0.0,4.00,4.00,3.80,10.16,7.88,5.70,1,1,1,4.90,15.41,0.88,14.89,3.80,7.60,3.80,357.86,TARP,DOE-2,94.17,28.65,24.35,4.30,6,1,0,Yes
 Zone Information, THERMAL ZONE 13,0.0,11.54,16.49,3.80,15.21,4.46,5.70,1,1,1,12.18,18.24,-4.02,12.94,3.80,7.60,3.80,189.85,TARP,DOE-2,49.96,47.46,40.34,7.12,6,1,0,Yes
 Zone Information, THERMAL ZONE 14,0.0,-34.10,16.49,11.40,12.52,19.04,13.30,1,1,1,-28.67,53.71,3.39,34.69,11.40,15.20,3.80,3227.09,TARP,DOE-2,849.23,313.61,266.57,47.04,6,1,0,Yes
 Zone Information, THERMAL ZONE 15,0.0,11.54,4.00,11.40,7.93,-0.43,13.30,1,1,1,0.00,15.01,-4.02,2.83,11.40,15.20,3.80,175.41,TARP,DOE-2,46.16,59.05,50.19,8.86,6,1,0,Yes
 Zone Information, THERMAL ZONE 16,0.0,-34.10,16.49,3.80,-29.57,30.32,5.70,1,1,1,-33.57,-26.01,21.93,39.59,3.80,7.60,3.80,217.21,TARP,DOE-2,57.16,69.50,59.08,10.43,6,1,0,Yes
 Zone Information, THERMAL ZONE 17,0.0,-34.10,26.78,3.80,14.38,26.00,5.70,1,1,1,-28.84,58.61,13.33,39.59,3.80,7.60,3.80,1315.26,TARP,DOE-2,346.12,344.01,292.41,51.60,6,1,0,Yes
 Zone Information, THERMAL ZONE 18,0.0,11.54,4.00,7.60,7.93,-0.43,9.50,1,1,1,0.00,15.01,-4.02,2.83,7.60,11.40,3.80,175.41,TARP,DOE-2,46.16,59.05,50.19,8.86,6,1,0,Yes
 Zone Information, THERMAL ZONE 19,0.0,-34.10,26.78,7.60,14.38,26.00,9.50,1,1,1,-28.84,58.61,13.33,39.59,7.60,11.40,3.80,1315.26,TARP,DOE-2,346.12,344.01,292.41,51.60,6,1,0,Yes
 Zone Information, THERMAL ZONE 2,0.0,4.00,4.00,7.60,10.16,7.88,9.50,1,1,1,4.90,15.41,0.88,14.89,7.60,11.40,3.80,357.86,TARP,DOE-2,94.17,28.65,24.35,4.30,6,1,0,Yes
 Zone Information, THERMAL ZONE 20,0.0,-34.10,16.49,0.00,12.52,19.04,1.90,1,1,1,-28.67,53.71,3.39,34.69,0.00,3.80,3.80,3227.09,TARP,DOE-2,849.23,313.61,266.57,47.04,6,1,0,Yes
 Zone Information, THERMAL ZONE 21,0.0,11.54,16.49,0.00,15.21,4.46,1.90,1,1,1,12.18,18.24,-4.02,12.94,0.00,3.80,3.80,189.85,TARP,DOE-2,49.96,47.46,40.34,7.12,6,1,0,Yes
 Zone Information, THERMAL ZONE 22,0.0,-34.10,16.49,0.00,-29.57,30.32,1.90,1,1,1,-33.57,-26.01,21.93,39.59,0.00,3.80,3.80,217.21,TARP,DOE-2,57.16,69.50,59.08,10.43,6,1,0,Yes
 Zone Information, THERMAL ZONE 23,0.0,48.43,16.49,3.80,34.65,5.72,5.70,1,1,1,15.41,53.88,-1.51,12.94,3.80,7.60,3.80,560.73,TARP,DOE-2,147.56,280.36,238.31,42.05,6,2,0,Yes
 Zone Information, THERMAL ZONE 24,0.0,4.00,4.00,0.00,10.16,7.88,1.90,1,1,1,4.90,15.41,0.88,14.89,0.00,3.80,3.80,357.86,TARP,DOE-2,94.17,28.65,24.35,4.30,6,1,0,Yes
 Zone Information, THERMAL ZONE 25,0.0,48.43,26.78,7.60,54.61,7.77,9.50,1,1,1,51.05,58.61,-1.51,16.16,7.60,11.40,3.80,217.21,TARP,DOE-2,57.16,69.50,59.08,10.43,6,1,0,Yes
 Zone Information, THERMAL ZONE 26,0.0,48.43,26.78,11.40,54.61,7.77,13.30,1,1,1,51.05,58.61,-1.51,16.16,11.40,15.20,3.80,217.21,TARP,DOE-2,57.16,69.50,59.08,10.43,6,1,0,Yes
 Zone Information, THERMAL ZONE 27,0.0,11.54,4.00,0.00,7.93,-0.43,1.90,1,1,1,0.00,15.01,-4.02,2.83,0.00,3.80,3.80,175.41,TARP,DOE-2,46.16,59.05,50.19,8.86,6,1,0,Yes
 Zone Information, THERMAL ZONE 28,0.0,-34.10,16.49,11.40,-29.57,30.32,13.30,1,1,1,-33.57,-26.01,21.93,39.59,11.40,15.20,3.80,217.21,TARP,DOE-2,57.16,69.50,59.08,10.43,6,1,0,Yes
 Zone Information, THERMAL ZONE 29,0.0,11.54,4.00,3.80,7.93,-0.43,5.70,1,1,1,0.00,15.01,-4.02,2.83,3.80,7.60,3.80,175.41,TARP,DOE-2,46.16,59.05,50.19,8.86,6,1,0,Yes
 Zone Information, THERMAL ZONE 3,0.0,11.54,16.49,7.60,15.21,4.46,9.50,1,1,1,12.18,18.24,-4.02,12.94,7.60,11.40,3.80,189.85,TARP,DOE-2,49.96,47.46,40.34,7.12,6,1,0,Yes
 Zone Information, THERMAL ZONE 30,0.0,48.43,26.78,3.80,54.61,7.77,5.70,1,1,1,51.05,58.61,-1.51,16.16,3.80,7.60,3.80,217.21,TARP,DOE-2,57.16,69.50,59.08,10.43,6,1,0,Yes
 Zone Information, THERMAL ZONE 31,0.0,48.43,26.78,0.00,54.61,7.77,1.90,1,1,1,51.05,58.61,-1.51,16.16,0.00,3.80,3.80,217.21,TARP,DOE-2,57.16,69.50,59.08,10.43,6,1,0,Yes
 Zone Information, THERMAL ZONE 32,0.0,4.00,4.00,3.80,4.07,7.45,5.70,1,1,1,0.00,8.13,0.00,14.89,3.80,7.60,3.80,189.85,TARP,DOE-2,49.96,47.46,40.34,7.12,6,1,0,Yes
 Zone Information, THERMAL ZONE 33,0.0,-34.10,16.49,7.60,-29.57,30.32,9.50,1,1,1,-33.57,-26.01,21.93,39.59,7.60,11.40,3.80,217.21,TARP,DOE-2,57.16,69.50,59.08,10.43,6,1,0,Yes
 Zone Information, THERMAL ZONE 34,0.0,4.00,4.00,11.40,4.07,7.45,13.30,1,1,1,0.00,8.13,0.00,14.89,11.40,15.20,3.80,189.85,TARP,DOE-2,49.96,47.46,40.34,7.12,6,1,0,Yes
 Zone Information, THERMAL ZONE 35,0.0,-34.10,16.49,3.80,12.52,19.04,5.70,1,1,1,-28.67,53.71,3.39,34.69,3.80,7.60,3.80,3227.09,TARP,DOE-2,849.23,313.61,266.57,47.04,6,1,0,Yes
 Zone Information, THERMAL ZONE 36,0.0,-34.10,26.78,0.00,14.38,26.00,1.90,1,1,1,-28.84,58.61,13.33,39.59,0.00,3.80,3.80,1315.26,TARP,DOE-2,346.12,344.01,292.41,51.60,6,1,0,Yes
 Zone Information, THERMAL ZONE 37,0.0,4.00,16.49,0.00,-12.72,18.41,1.90,1,1,1,-33.57,8.13,12.06,24.75,0.00,3.80,3.80,579.12,TARP,DOE-2,152.40,289.56,246.13,43.43,6,2,0,Yes
 Zone Information, THERMAL ZONE 38,0.0,-34.10,26.78,11.40,14.38,26.00,13.30,1,1,1,-28.84,58.61,13.33,39.59,11.40,15.20,3.80,1315.26,TARP,DOE-2,346.12,344.01,292.41,51.60,6,1,0,Yes
 Zone Information, THERMAL ZONE 39,0.0,4.00,4.00,11.40,10.16,7.88,13.30,1,1,1,4.90,15.41,0.88,14.89,11.40,15.20,3.80,357.86,TARP,DOE-2,94.17,28.65,24.35,4.30,6,1,0,Yes
 Zone Information, THERMAL ZONE 4,0.0,11.54,16.49,11.40,15.21,4.46,13.30,1,1,1,12.18,18.24,-4.02,12.94,11.40,15.20,3.80,189.85,TARP,DOE-2,49.96,47.46,40.34,7.12,6,1,0,Yes
 Zone Information, THERMAL ZONE 40,0.0,4.00,16.49,3.80,-12.72,18.41,5.70,1,1,1,-33.57,8.13,12.06,24.75,3.80,7.60,3.80,579.12,TARP,DOE-2,152.40,289.56,246.13,43.43,6,2,0,Yes
 Zone Information, THERMAL ZONE 5,0.0,4.00,4.00,7.60,4.07,7.45,9.50,1,1,1,0.00,8.13,0.00,14.89,7.60,11.40,3.80,189.85,TARP,DOE-2,49.96,47.46,40.34,7.12,6,1,0,Yes
 Zone Information, THERMAL ZONE 6,0.0,4.00,16.49,11.40,-12.72,18.41,13.30,1,1,1,-33.57,8.13,12.06,24.75,11.40,15.20,3.80,579.12,TARP,DOE-2,152.40,289.56,246.13,43.43,6,2,0,Yes
 Zone Information, THERMAL ZONE 7,0.0,48.43,16.49,7.60,34.65,5.72,9.50,1,1,1,15.41,53.88,-1.51,12.94,7.60,11.40,3.80,560.73,TARP,DOE-2,147.56,280.36,238.31,42.05,6,2,0,Yes
 Zone Information, THERMAL ZONE 8,0.0,48.43,16.49,0.00,34.65,5.72,1.90,1,1,1,15.41,53.88,-1.51,12.94,0.00,3.80,3.80,560.73,TARP,DOE-2,147.56,280.36,238.31,42.05,6,2,0,Yes
 Zone Information, THERMAL ZONE 9,0.0,4.00,16.49,7.60,-12.72,18.41,9.50,1,1,1,-33.57,8.13,12.06,24.75,7.60,11.40,3.80,579.12,TARP,DOE-2,152.40,289.56,246.13,43.43,6,2,0,Yes
! <Zone Internal Gains/Equipment Information - Nominal>,Zone Name, Floor Area {m2},# Occupants,Area per Occupant {m2/person},Occupant per Area {person/m2},Interior Lighting {W/m2},Electric Load {W/m2},Gas Load {W/m2},Other Load {W/m2},Hot Water Eq {W/m2},Steam Equipment {W/m2},Sum Loads per Area {W/m2},Outdoor Controlled Baseboard Heat
 Zone Internal Gains, THERMAL ZONE 1,147.56,7.9,18.581,5.382E-002,10.764,10.764,0.000,0.000,0.000,0.000,21.528,No
 Zone Internal Gains, THERMAL ZONE 10,849.23,45.7,18.581,5.382E-002,10.764,10.764,0.000,0.000,0.000,0.000,21.528,No
 Zone Internal Gains, THERMAL ZONE 11,49.96,2.7,18.581,5.382E-002,10.764,10.764,0.000,0.000,0.000,0.000,21.528,No
 Zone Internal Gains, THERMAL ZONE 12,94.17,5.1,18.581,5.382E-002,10.764,10.764,0.000,0.000,0.000,0.000,21.528,No
 Zone Internal Gains, THERMAL ZONE 13,49.96,2.7,18.581,5.382E-002,10.764,10.764,0.000,0.000,0.000,0.000,21.528,No
 Zone Internal Gains, THERMAL ZONE 14,849.23,45.7,18.581,5.382E-002,10.764,10.764,0.000,0.000,0.000,0.000,21.528,No
 Zone Internal Gains, THERMAL ZONE 15,46.16,2.5,18.581,5.382E-002,10.764,10.764,0.000,0.000,0.000,0.000,21.528,No
 Zone Internal Gains, THERMAL ZONE 16,57.16,3.1,18.581,5.382E-002,10.764,10.764,0.000,0.000,0.000,0.000,21.528,No
 Zone Internal Gains, THERMAL ZONE 17,346.12,18.6,18.581,5.382E-002,10.764,10.764,0.000,0.000,0.000,0.000,21.528,No
 Zone Internal Gains, THERMAL ZONE 18,46.16,2.5,18.581,5.382E-002,10.764,10.764,0.000,0.000,0.000,0.000,21.528,No
 Zone Internal Gains, THERMAL ZONE 19,346.12,18.6,18.581,5.382E-002,10.764,10.764,0.000,0.000,0.000,0.000,21.528,No
 Zone Internal Gains, THERMAL ZONE 2,94.17,5.1,18.581,5.382E-002,10.764,10.764,0.000,0.000,0.000,0.000,21.528,No
 Zone Internal Gains, THERMAL ZONE 20,849.23,45.7,18.581,5.382E-002,10.764,10.764,0.000,0.000,0.000,0.000,21.528,No
 Zone Internal Gains, THERMAL ZONE 21,49.96,2.7,18.581,5.382E-002,10.764,10.764,0.000,0.000,0.000,0.000,21.528,No
 Zone Internal Gains, THERMAL ZONE 22,57.16,3.1,18.581,5.382E-002,10.764,10.764,0.000,0.000,0.000,0.000,21.528,No
 Zone Internal Gains, THERMAL ZONE 23,147.56,7.9,18.581,5.382E-002,10.764,10.764,0.000,0.000,0.000,0.000,21.528,No
 Zone Internal Gains, THERMAL ZONE 24,94.17,5.1,18.581,5.382E-002,10.764,10.764,0.000,0.000,0.000,0.000,21.528,No
 Zone Internal Gains, THERMAL ZONE 25,57.16,3.1,18.581,5.382E-002,10.764,10.764,0.000,0.000,0.000,0.000,21.528,No
 Zone Internal Gains, THERMAL ZONE 26,57.16,3.1,18.581,5.382E-002,10.764,10.764,0.000,0.000,0.000,0.000,21.528,No
 Zone Internal Gains, THERMAL ZONE 27,46.16,2.5,18.581,5.382E-002,10.764,10.764,0.000,0.000,0.000,0.000,21.528,No
 Zone Internal Gains, THERMAL ZONE 28,57.16,3.1,18.581,5.382E-002,10.764,10.764,0.000,0.000,0.000,0.000,21.528,No
 Zone Internal Gains, THERMAL ZONE 29,46.16,2.5,18.581,5.382E-002,10.764,10.764,0.000,0.000,0.000,0.000,21.528,No
 Zone Internal Gains, THERMAL ZONE 3,49.96,2.7,18.581,5.382E-002,10.764,10.764,0.000,0.000,0.000,0.000,21.528,No
 Zone Internal Gains, THERMAL ZONE 30,57.16,3.1,18.581,5.382E-002,10.764,10.764,0.000,0.000,0.000,0.000,21.528,No
 Zone Internal Gains, THERMAL ZONE 31,57.16,3.1,18.581,5.382E-002,10.764,10.764,0.000,0.000,0.000,0.000,21.528,No
 Zone Internal Gains, THERMAL ZONE 32,49.96,2.7,18.581,5.382E-002,10.764,10.764,0.000,0.000,0.000,0.000,21.528,No
 Zone Internal Gains, THERMAL ZONE 33,57.16,3.1,18.581,5.382E-002,10.764,10.764,0.000,0.000,0.000,0.000,21.528,No
 Zone Internal Gains, THERMAL ZONE 34,49.96,2.7,18.581,5.382E-002,10.764,10.764,0.000,0.000,0.000,0.000,21.528,No
 Zone Internal Gains, THERMAL ZONE 35,849.23,45.7,18.581,5.382E-002,10.764,10.764,0.000,0.000,0.000,0.000,21.528,No
 Zone Internal Gains, THERMAL ZONE 36,346.12,18.6,18.581,5.382E-002,10.764,10.764,0.000,0.000,0.000,0.000,21.528,No
 Zone Internal Gains, THERMAL ZONE 37,152.40,8.2,18.581,5.382E-002,10.764,10.764,0.000,0.000,0.000,0.000,21.528,No
 Zone Internal Gains, THERMAL ZONE 38,346.12,18.6,18.581,5.382E-002,10.764,10.764,0.000,0.000,0.000,0.000,21.528,No
 Zone Internal Gains, THERMAL ZONE 39,94.17,5.1,18.581,5.382E-002,10.764,10.764,0.000,0.000,0.000,0.000,21.528,No
 Zone Internal Gains, THERMAL ZONE 4,49.96,2.7,18.581,5.382E-002,10.764,10.764,0.000,0.000,0.000,0.000,21.528,No
 Zone Internal Gains, THERMAL ZONE 40,152.40,8.2,18.581,5.382E-002,10.764,10.764,0.000,0.000,0.000,0.000,21.528,No
 Zone Internal Gains, THERMAL ZONE 5,49.96,2.7,18.581,5.382E-002,10.764,10.764,0.000,0.000,0.000,0.000,21.528,No
 Zone Internal Gains, THERMAL ZONE 6,152.40,8.2,18.581,5.382E-002,10.764,10.764,0.000,0.000,0.000,0.000,21.528,No
 Zone Internal Gains, THERMAL ZONE 7,147.56,7.9,18.581,5.382E-002,10.764,10.764,0.000,0.000,0.000,0.000,21.528,No
 Zone Internal Gains, THERMAL ZONE 8,147.56,7.9,18.581,5.382E-002,10.764,10.764,0.000,0.000,0.000,0.000,21.528,No
 Zone Internal Gains, THERMAL ZONE 9,152.40,8.2,18.581,5.382E-002,10.764,10.764,0.000,0.000,0.000,0.000,21.528,No
! <People Internal Gains - Nominal>,Name,Schedule Name,Zone Name,Zone Floor Area {m2},# Zone Occupants,Number of People {},People/Floor Area {person/m2},Floor Area per person {m2/person},Fraction Radiant,Fraction Convected,Sensible Fraction Calculation,Activity level,ASHRAE 55 Warnings,Carbon Dioxide Generation Rate,Nominal Minimum Number of People,Nominal Maximum Number of People 
 People Internal Gains, THERMAL ZONE 1 ASHRAE_90.1-2004 CLIMATEZONE 1-8 MEDIUMOFFICE WHOLEBUILDING PEOPLE,MEDIUM OFFICE_BLDG_OCC,THERMAL ZONE 1,147.56,7.9,7.9,5.382E-002,18.581,0.300,0.700,AutoCalculate,MEDIUM OFFICE_ACTIVITY,No,3.8200E-008,0,8
 People Internal Gains, THERMAL ZONE 10 ASHRAE_90.1-2004 CLIMATEZONE 1-8 MEDIUMOFFICE WHOLEBUILDING PEOPLE,MEDIUM OFFICE_BLDG_OCC,THERMAL ZONE 10,849.23,45.7,45.7,5.382E-002,18.581,0.300,0.700,AutoCalculate,MEDIUM OFFICE_ACTIVITY,No,3.8200E-008,0,46
 People Internal Gains, THERMAL ZONE 11 ASHRAE_90.1-2004 CLIMATEZONE 1-8 MEDIUMOFFICE WHOLEBUILDING PEOPLE,MEDIUM OFFICE_BLDG_OCC,THERMAL ZONE 11,49.96,2.7,2.7,5.382E-002,18.581,0.300,0.700,AutoCalculate,MEDIUM OFFICE_ACTIVITY,No,3.8200E-008,0,3
 People Internal Gains, THERMAL ZONE 12 ASHRAE_90.1-2004 CLIMATEZONE 1-8 MEDIUMOFFICE WHOLEBUILDING PEOPLE,MEDIUM OFFICE_BLDG_OCC,THERMAL ZONE 12,94.17,5.1,5.1,5.382E-002,18.581,0.300,0.700,AutoCalculate,MEDIUM OFFICE_ACTIVITY,No,3.8200E-008,0,5
 People Internal Gains, THERMAL ZONE 13 ASHRAE_90.1-2004 CLIMATEZONE 1-8 MEDIUMOFFICE WHOLEBUILDING PEOPLE,MEDIUM OFFICE_BLDG_OCC,THERMAL ZONE 13,49.96,2.7,2.7,5.382E-002,18.581,0.300,0.700,AutoCalculate,MEDIUM OFFICE_ACTIVITY,No,3.8200E-008,0,3
 People Internal Gains, THERMAL ZONE 14 ASHRAE_90.1-2004 CLIMATEZONE 1-8 MEDIUMOFFICE WHOLEBUILDING PEOPLE,MEDIUM OFFICE_BLDG_OCC,THERMAL ZONE 14,849.23,45.7,45.7,5.382E-002,18.581,0.300,0.700,AutoCalculate,MEDIUM OFFICE_ACTIVITY,No,3.8200E-008,0,46
 People Internal Gains, THERMAL ZONE 15 ASHRAE_90.1-2004 CLIMATEZONE 1-8 MEDIUMOFFICE WHOLEBUILDING PEOPLE,MEDIUM OFFICE_BLDG_OCC,THERMAL ZONE 15,46.16,2.5,2.5,5.382E-002,18.581,0.300,0.700,AutoCalculate,MEDIUM OFFICE_ACTIVITY,No,3.8200E-008,0,2
 People Internal Gains, THERMAL ZONE 16 ASHRAE_90.1-2004 CLIMATEZONE 1-8 MEDIUMOFFICE WHOLEBUILDING PEOPLE,MEDIUM OFFICE_BLDG_OCC,THERMAL ZONE 16,57.16,3.1,3.1,5.382E-002,18.581,0.300,0.700,AutoCalculate,MEDIUM OFFICE_ACTIVITY,No,3.8200E-008,0,3
 People Internal Gains, THERMAL ZONE 17 ASHRAE_90.1-2004 CLIMATEZONE 1-8 MEDIUMOFFICE WHOLEBUILDING PEOPLE,MEDIUM OFFICE_BLDG_OCC,THERMAL ZONE 17,346.12,18.6,18.6,5.382E-002,18.581,0.300,0.700,AutoCalculate,MEDIUM OFFICE_ACTIVITY,No,3.8200E-008,0,19
 People Internal Gains, THERMAL ZONE 18 ASHRAE_90.1-2004 CLIMATEZONE 1-8 MEDIUMOFFICE WHOLEBUILDING PEOPLE,MEDIUM OFFICE_BLDG_OCC,THERMAL ZONE 18,46.16,2.5,2.5,5.382E-002,18.581,0.300,0.700,AutoCalculate,MEDIUM OFFICE_ACTIVITY,No,3.8200E-008,0,2
 People Internal Gains, THERMAL ZONE 19 ASHRAE_90.1-2004 CLIMATEZONE 1-8 MEDIUMOFFICE WHOLEBUILDING PEOPLE,MEDIUM OFFICE_BLDG_OCC,THERMAL ZONE 19,346.12,18.6,18.6,5.382E-002,18.581,0.300,0.700,AutoCalculate,MEDIUM OFFICE_ACTIVITY,No,3.8200E-008,0,19
 People Internal Gains, THERMAL ZONE 2 ASHRAE_90.1-2004 CLIMATEZONE 1-8 MEDIUMOFFICE WHOLEBUILDING PEOPLE,MEDIUM OFFICE_BLDG_OCC,THERMAL ZONE 2,94.17,5.1,5.1,5.382E-002,18.581,0.300,0.700,AutoCalculate,MEDIUM OFFICE_ACTIVITY,No,3.8200E-008,0,5
 People Internal Gains, THERMAL ZONE 20 ASHRAE_90.1-2004 CLIMATEZONE 1-8 MEDIUMOFFICE WHOLEBUILDING PEOPLE,MEDIUM OFFICE_BLDG_OCC,THERMAL ZONE 20,849.23,45.7,45.7,5.382E-002,18.581,0.300,0.700,AutoCalculate,MEDIUM OFFICE_ACTIVITY,No,3.8200E-008,0,46
 People Internal Gains, THERMAL ZONE 21 ASHRAE_90.1-2004 CLIMATEZONE 1-8 MEDIUMOFFICE WHOLEBUILDING PEOPLE,MEDIUM OFFICE_BLDG_OCC,THERMAL ZONE 21,49.96,2.7,2.7,5.382E-002,18.581,0.300,0.700,AutoCalculate,MEDIUM OFFICE_ACTIVITY,No,3.8200E-008,0,3
 People Internal Gains, THERMAL ZONE 22 ASHRAE_90.1-2004 CLIMATEZONE 1-8 MEDIUMOFFICE WHOLEBUILDING PEOPLE,MEDIUM OFFICE_BLDG_OCC,THERMAL ZONE 22,57.16,3.1,3.1,5.382E-002,18.581,0.300,0.700,AutoCalculate,MEDIUM OFFICE_ACTIVITY,No,3.8200E-008,0,3
 People Internal Gains, THERMAL ZONE 23 ASHRAE_90.1-2004 CLIMATEZONE 1-8 MEDIUMOFFICE WHOLEBUILDING PEOPLE,MEDIUM OFFICE_BLDG_OCC,THERMAL ZONE 23,147.56,7.9,7.9,5.382E-002,18.581,0.300,0.700,AutoCalculate,MEDIUM OFFICE_ACTIVITY,No,3.8200E-008,0,8
 People Internal Gains, THERMAL ZONE 24 ASHRAE_90.1-2004 CLIMATEZONE 1-8 MEDIUMOFFICE WHOLEBUILDING PEOPLE,MEDIUM OFFICE_BLDG_OCC,THERMAL ZONE 24,94.17,5.1,5.1,5.382E-002,18.581,0.300,0.700,AutoCalculate,MEDIUM OFFICE_ACTIVITY,No,3.8200E-008,0,5
 People Internal Gains, THERMAL ZONE 25 ASHRAE_90.1-2004 CLIMATEZONE 1-8 MEDIUMOFFICE WHOLEBUILDING PEOPLE,MEDIUM OFFICE_BLDG_OCC,THERMAL ZONE 25,57.16,3.1,3.1,5.382E-002,18.581,0.300,0.700,AutoCalculate,MEDIUM OFFICE_ACTIVITY,No,3.8200E-008,0,3
 People Internal Gains, THERMAL ZONE 26 ASHRAE_90.1-2004 CLIMATEZONE 1-8 MEDIUMOFFICE WHOLEBUILDING PEOPLE,MEDIUM OFFICE_BLDG_OCC,THERMAL ZONE 26,57.16,3.1,3.1,5.382E-002,18.581,0.300,0.700,AutoCalculate,MEDIUM OFFICE_ACTIVITY,No,3.8200E-008,0,3
 People Internal Gains, THERMAL ZONE 27 ASHRAE_90.1-2004 CLIMATEZONE 1-8 MEDIUMOFFICE WHOLEBUILDING PEOPLE,MEDIUM OFFICE_BLDG_OCC,THERMAL ZONE 27,46.16,2.5,2.5,5.382E-002,18.581,0.300,0.700,AutoCalculate,MEDIUM OFFICE_ACTIVITY,No,3.8200E-008,0,2
 People Internal Gains, THERMAL ZONE 28 ASHRAE_90.1-2004 CLIMATEZONE 1-8 MEDIUMOFFICE WHOLEBUILDING PEOPLE,MEDIUM OFFICE_BLDG_OCC,THERMAL ZONE 28,57.16,3.1,3.1,5.382E-002,18.581,0.300,0.700,AutoCalculate,MEDIUM OFFICE_ACTIVITY,No,3.8200E-008,0,3
 People Internal Gains, THERMAL ZONE 29 ASHRAE_90.1-2004 CLIMATEZONE 1-8 MEDIUMOFFICE WHOLEBUILDING PEOPLE,MEDIUM OFFICE_BLDG_OCC,THERMAL ZONE 29,46.16,2.5,2.5,5.382E-002,18.581,0.300,0.700,AutoCalculate,MEDIUM OFFICE_ACTIVITY,No,3.8200E-008,0,2
 People Internal Gains, THERMAL ZONE 3 ASHRAE_90.1-2004 CLIMATEZONE 1-8 MEDIUMOFFICE WHOLEBUILDING PEOPLE,MEDIUM OFFICE_BLDG_OCC,THERMAL ZONE 3,49.96,2.7,2.7,5.382E-002,18.581,0.300,0.700,AutoCalculate,MEDIUM OFFICE_ACTIVITY,No,3.8200E-008,0,3
 People Internal Gains, THERMAL ZONE 30 ASHRAE_90.1-2004 CLIMATEZONE 1-8 MEDIUMOFFICE WHOLEBUILDING PEOPLE,MEDIUM OFFICE_BLDG_OCC,THERMAL ZONE 30,57.16,3.1,3.1,5.382E-002,18.581,0.300,0.700,AutoCalculate,MEDIUM OFFICE_ACTIVITY,No,3.8200E-008,0,3
 People Internal Gains, THERMAL ZONE 31 ASHRAE_90.1-2004 CLIMATEZONE 1-8 MEDIUMOFFICE WHOLEBUILDING PEOPLE,MEDIUM OFFICE_BLDG_OCC,THERMAL ZONE 31,57.16,3.1,3.1,5.382E-002,18.581,0.300,0.700,AutoCalculate,MEDIUM OFFICE_ACTIVITY,No,3.8200E-008,0,3
 People Internal Gains, THERMAL ZONE 32 ASHRAE_90.1-2004 CLIMATEZONE 1-8 MEDIUMOFFICE WHOLEBUILDING PEOPLE,MEDIUM OFFICE_BLDG_OCC,THERMAL ZONE 32,49.96,2.7,2.7,5.382E-002,18.581,0.300,0.700,AutoCalculate,MEDIUM OFFICE_ACTIVITY,No,3.8200E-008,0,3
 People Internal Gains, THERMAL ZONE 33 ASHRAE_90.1-2004 CLIMATEZONE 1-8 MEDIUMOFFICE WHOLEBUILDING PEOPLE,MEDIUM OFFICE_BLDG_OCC,THERMAL ZONE 33,57.16,3.1,3.1,5.382E-002,18.581,0.300,0.700,AutoCalculate,MEDIUM OFFICE_ACTIVITY,No,3.8200E-008,0,3
 People Internal Gains, THERMAL ZONE 34 ASHRAE_90.1-2004 CLIMATEZONE 1-8 MEDIUMOFFICE WHOLEBUILDING PEOPLE,MEDIUM OFFICE_BLDG_OCC,THERMAL ZONE 34,49.96,2.7,2.7,5.382E-002,18.581,0.300,0.700,AutoCalculate,MEDIUM OFFICE_ACTIVITY,No,3.8200E-008,0,3
 People Internal Gains, THERMAL ZONE 35 ASHRAE_90.1-2004 CLIMATEZONE 1-8 MEDIUMOFFICE WHOLEBUILDING PEOPLE,MEDIUM OFFICE_BLDG_OCC,THERMAL ZONE 35,849.23,45.7,45.7,5.382E-002,18.581,0.300,0.700,AutoCalculate,MEDIUM OFFICE_ACTIVITY,No,3.8200E-008,0,46
 People Internal Gains, THERMAL ZONE 36 ASHRAE_90.1-2004 CLIMATEZONE 1-8 MEDIUMOFFICE WHOLEBUILDING PEOPLE,MEDIUM OFFICE_BLDG_OCC,THERMAL ZONE 36,346.12,18.6,18.6,5.382E-002,18.581,0.300,0.700,AutoCalculate,MEDIUM OFFICE_ACTIVITY,No,3.8200E-008,0,19
 People Internal Gains, THERMAL ZONE 37 ASHRAE_90.1-2004 CLIMATEZONE 1-8 MEDIUMOFFICE WHOLEBUILDING PEOPLE,MEDIUM OFFICE_BLDG_OCC,THERMAL ZONE 37,152.40,8.2,8.2,5.382E-002,18.581,0.300,0.700,AutoCalculate,MEDIUM OFFICE_ACTIVITY,No,3.8200E-008,0,8
 People Internal Gains, THERMAL ZONE 38 ASHRAE_90.1-2004 CLIMATEZONE 1-8 MEDIUMOFFICE WHOLEBUILDING PEOPLE,MEDIUM OFFICE_BLDG_OCC,THERMAL ZONE 38,346.12,18.6,18.6,5.382E-002,18.581,0.300,0.700,AutoCalculate,MEDIUM OFFICE_ACTIVITY,No,3.8200E-008,0,19
 People Internal Gains, THERMAL ZONE 39 ASHRAE_90.1-2004 CLIMATEZONE 1-8 MEDIUMOFFICE WHOLEBUILDING PEOPLE,MEDIUM OFFICE_BLDG_OCC,THERMAL ZONE 39,94.17,5.1,5.1,5.382E-002,18.581,0.300,0.700,AutoCalculate,MEDIUM OFFICE_ACTIVITY,No,3.8200E-008,0,5
 People Internal Gains, THERMAL ZONE 4 ASHRAE_90.1-2004 CLIMATEZONE 1-8 MEDIUMOFFICE WHOLEBUILDING PEOPLE,MEDIUM OFFICE_BLDG_OCC,THERMAL ZONE 4,49.96,2.7,2.7,5.382E-002,18.581,0.300,0.700,AutoCalculate,MEDIUM OFFICE_ACTIVITY,No,3.8200E-008,0,3
 People Internal Gains, THERMAL ZONE 40 ASHRAE_90.1-2004 CLIMATEZONE 1-8 MEDIUMOFFICE WHOLEBUILDING PEOPLE,MEDIUM OFFICE_BLDG_OCC,THERMAL ZONE 40,152.40,8.2,8.2,5.382E-002,18.581,0.300,0.700,AutoCalculate,MEDIUM OFFICE_ACTIVITY,No,3.8200E-008,0,8
 People Internal Gains, THERMAL ZONE 5 ASHRAE_90.1-2004 CLIMATEZONE 1-8 MEDIUMOFFICE WHOLEBUILDING PEOPLE,MEDIUM OFFICE_BLDG_OCC,THERMAL ZONE 5,49.96,2.7,2.7,5.382E-002,18.581,0.300,0.700,AutoCalculate,MEDIUM OFFICE_ACTIVITY,No,3.8200E-008,0,3
 People Internal Gains, THERMAL ZONE 6 ASHRAE_90.1-2004 CLIMATEZONE 1-8 MEDIUMOFFICE WHOLEBUILDING PEOPLE,MEDIUM OFFICE_BLDG_OCC,THERMAL ZONE 6,152.40,8.2,8.2,5.382E-002,18.581,0.300,0.700,AutoCalculate,MEDIUM OFFICE_ACTIVITY,No,3.8200E-008,0,8
 People Internal Gains, THERMAL ZONE 7 ASHRAE_90.1-2004 CLIMATEZONE 1-8 MEDIUMOFFICE WHOLEBUILDING PEOPLE,MEDIUM OFFICE_BLDG_OCC,THERMAL ZONE 7,147.56,7.9,7.9,5.382E-002,18.581,0.300,0.700,AutoCalculate,MEDIUM OFFICE_ACTIVITY,No,3.8200E-008,0,8
 People Internal Gains, THERMAL ZONE 8 ASHRAE_90.1-2004 CLIMATEZONE 1-8 MEDIUMOFFICE WHOLEBUILDING PEOPLE,MEDIUM OFFICE_BLDG_OCC,THERMAL ZONE 8,147.56,7.9,7.9,5.382E-002,18.581,0.300,0.700,AutoCalculate,MEDIUM OFFICE_ACTIVITY,No,3.8200E-008,0,8
 People Internal Gains, THERMAL ZONE 9 ASHRAE_90.1-2004 CLIMATEZONE 1-8 MEDIUMOFFICE WHOLEBUILDING PEOPLE,MEDIUM OFFICE_BLDG_OCC,THERMAL ZONE 9,152.40,8.2,8.2,5.382E-002,18.581,0.300,0.700,AutoCalculate,MEDIUM OFFICE_ACTIVITY,No,3.8200E-008,0,8
! <Lights Internal Gains - Nominal>,Name,Schedule Name,Zone Name,Zone Floor Area {m2},# Zone Occupants,Lighting Level {W},Lights/Floor Area {W/m2},Lights per person {W/person},Fraction Return Air,Fraction Radiant,Fraction Short Wave,Fraction Convected,Fraction Replaceable,End-Use Category,Nominal Minimum Lighting Level {W},Nominal Maximum Lighting Level {W}
 Lights Internal Gains, THERMAL ZONE 1 ASHRAE_90.1-2004 CLIMATEZONE 1-8 MEDIUMOFFICE WHOLEBUILDING LIGHTS,MEDIUM OFFICE_BLDG_LIGHT,THERMAL ZONE 1,147.56,7.9,1588.323,10.764,200.000,0.000,0.000,0.000,1.000,1.000,General,0.000,1588.323
 Lights Internal Gains, THERMAL ZONE 10 ASHRAE_90.1-2004 CLIMATEZONE 1-8 MEDIUMOFFICE WHOLEBUILDING LIGHTS,MEDIUM OFFICE_BLDG_LIGHT,THERMAL ZONE 10,849.23,45.7,9141.075,10.764,200.000,0.000,0.000,0.000,1.000,1.000,General,0.000,9141.075
 Lights Internal Gains, THERMAL ZONE 11 ASHRAE_90.1-2004 CLIMATEZONE 1-8 MEDIUMOFFICE WHOLEBUILDING LIGHTS,MEDIUM OFFICE_BLDG_LIGHT,THERMAL ZONE 11,49.96,2.7,537.765,10.764,200.000,0.000,0.000,0.000,1.000,1.000,General,0.000,537.765
 Lights Internal Gains, THERMAL ZONE 12 ASHRAE_90.1-2004 CLIMATEZONE 1-8 MEDIUMOFFICE WHOLEBUILDING LIGHTS,MEDIUM OFFICE_BLDG_LIGHT,THERMAL ZONE 12,94.17,5.1,1013.687,10.764,200.000,0.000,0.000,0.000,1.000,1.000,General,0.000,1013.687
 Lights Internal Gains, THERMAL ZONE 13 ASHRAE_90.1-2004 CLIMATEZONE 1-8 MEDIUMOFFICE WHOLEBUILDING LIGHTS,MEDIUM OFFICE_BLDG_LIGHT,THERMAL ZONE 13,49.96,2.7,537.765,10.764,200.000,0.000,0.000,0.000,1.000,1.000,General,0.000,537.765
 Lights Internal Gains, THERMAL ZONE 14 ASHRAE_90.1-2004 CLIMATEZONE 1-8 MEDIUMOFFICE WHOLEBUILDING LIGHTS,MEDIUM OFFICE_BLDG_LIGHT,THERMAL ZONE 14,849.23,45.7,9141.075,10.764,200.000,0.000,0.000,0.000,1.000,1.000,General,0.000,9141.075
 Lights Internal Gains, THERMAL ZONE 15 ASHRAE_90.1-2004 CLIMATEZONE 1-8 MEDIUMOFFICE WHOLEBUILDING LIGHTS,MEDIUM OFFICE_BLDG_LIGHT,THERMAL ZONE 15,46.16,2.5,496.862,10.764,200.000,0.000,0.000,0.000,1.000,1.000,General,0.000,496.862
 Lights Internal Gains, THERMAL ZONE 16 ASHRAE_90.1-2004 CLIMATEZONE 1-8 MEDIUMOFFICE WHOLEBUILDING LIGHTS,MEDIUM OFFICE_BLDG_LIGHT,THERMAL ZONE 16,57.16,3.1,615.265,10.764,200.000,0.000,0.000,0.000,1.000,1.000,General,0.000,615.265
 Lights Internal Gains, THERMAL ZONE 17 ASHRAE_90.1-2004 CLIMATEZONE 1-8 MEDIUMOFFICE WHOLEBUILDING LIGHTS,MEDIUM OFFICE_BLDG_LIGHT,THERMAL ZONE 17,346.12,18.6,3725.605,10.764,200.000,0.000,0.000,0.000,1.000,1.000,General,0.000,3725.605
 Lights Internal Gains, THERMAL ZONE 18 ASHRAE_90.1-2004 CLIMATEZONE 1-8 MEDIUMOFFICE WHOLEBUILDING LIGHTS,MEDIUM OFFICE_BLDG_LIGHT,THERMAL ZONE 18,46.16,2.5,496.862,10.764,200.000,0.000,0.000,0.000,1.000,1.000,General,0.000,496.862
 Lights Internal Gains, THERMAL ZONE 19 ASHRAE_90.1-2004 CLIMATEZONE 1-8 MEDIUMOFFICE WHOLEBUILDING LIGHTS,MEDIUM OFFICE_BLDG_LIGHT,THERMAL ZONE 19,346.12,18.6,3725.605,10.764,200.000,0.000,0.000,0.000,1.000,1.000,General,0.000,3725.605
 Lights Internal Gains, THERMAL ZONE 2 ASHRAE_90.1-2004 CLIMATEZONE 1-8 MEDIUMOFFICE WHOLEBUILDING LIGHTS,MEDIUM OFFICE_BLDG_LIGHT,THERMAL ZONE 2,94.17,5.1,1013.687,10.764,200.000,0.000,0.000,0.000,1.000,1.000,General,0.000,1013.687
 Lights Internal Gains, THERMAL ZONE 20 ASHRAE_90.1-2004 CLIMATEZONE 1-8 MEDIUMOFFICE WHOLEBUILDING LIGHTS,MEDIUM OFFICE_BLDG_LIGHT,THERMAL ZONE 20,849.23,45.7,9141.075,10.764,200.000,0.000,0.000,0.000,1.000,1.000,General,0.000,9141.075
 Lights Internal Gains, THERMAL ZONE 21 ASHRAE_90.1-2004 CLIMATEZONE 1-8 MEDIUMOFFICE WHOLEBUILDING LIGHTS,MEDIUM OFFICE_BLDG_LIGHT,THERMAL ZONE 21,49.96,2.7,537.765,10.764,200.000,0.000,0.000,0.000,1.000,1.000,General,0.000,537.765
 Lights Internal Gains, THERMAL ZONE 22 ASHRAE_90.1-2004 CLIMATEZONE 1-8 MEDIUMOFFICE WHOLEBUILDING LIGHTS,MEDIUM OFFICE_BLDG_LIGHT,THERMAL ZONE 22,57.16,3.1,615.265,10.764,200.000,0.000,0.000,0.000,1.000,1.000,General,0.000,615.265
 Lights Internal Gains, THERMAL ZONE 23 ASHRAE_90.1-2004 CLIMATEZONE 1-8 MEDIUMOFFICE WHOLEBUILDING LIGHTS,MEDIUM OFFICE_BLDG_LIGHT,THERMAL ZONE 23,147.56,7.9,1588.323,10.764,200.000,0.000,0.000,0.000,1.000,1.000,General,0.000,1588.323
 Lights Internal Gains, THERMAL ZONE 24 ASHRAE_90.1-2004 CLIMATEZONE 1-8 MEDIUMOFFICE WHOLEBUILDING LIGHTS,MEDIUM OFFICE_BLDG_LIGHT,THERMAL ZONE 24,94.17,5.1,1013.687,10.764,200.000,0.000,0.000,0.000,1.000,1.000,General,0.000,1013.687
 Lights Internal Gains, THERMAL ZONE 25 ASHRAE_90.1-2004 CLIMATEZONE 1-8 MEDIUMOFFICE WHOLEBUILDING LIGHTS,MEDIUM OFFICE_BLDG_LIGHT,THERMAL ZONE 25,57.16,3.1,615.265,10.764,200.000,0.000,0.000,0.000,1.000,1.000,General,0.000,615.265
 Lights Internal Gains, THERMAL ZONE 26 ASHRAE_90.1-2004 CLIMATEZONE 1-8 MEDIUMOFFICE WHOLEBUILDING LIGHTS,MEDIUM OFFICE_BLDG_LIGHT,THERMAL ZONE 26,57.16,3.1,615.265,10.764,200.000,0.000,0.000,0.000,1.000,1.000,General,0.000,615.265
 Lights Internal Gains, THERMAL ZONE 27 ASHRAE_90.1-2004 CLIMATEZONE 1-8 MEDIUMOFFICE WHOLEBUILDING LIGHTS,MEDIUM OFFICE_BLDG_LIGHT,THERMAL ZONE 27,46.16,2.5,496.862,10.764,200.000,0.000,0.000,0.000,1.000,1.000,General,0.000,496.862
 Lights Internal Gains, THERMAL ZONE 28 ASHRAE_90.1-2004 CLIMATEZONE 1-8 MEDIUMOFFICE WHOLEBUILDING LIGHTS,MEDIUM OFFICE_BLDG_LIGHT,THERMAL ZONE 28,57.16,3.1,615.265,10.764,200.000,0.000,0.000,0.000,1.000,1.000,General,0.000,615.265
 Lights Internal Gains, THERMAL ZONE 29 ASHRAE_90.1-2004 CLIMATEZONE 1-8 MEDIUMOFFICE WHOLEBUILDING LIGHTS,MEDIUM OFFICE_BLDG_LIGHT,THERMAL ZONE 29,46.16,2.5,496.862,10.764,200.000,0.000,0.000,0.000,1.000,1.000,General,0.000,496.862
 Lights Internal Gains, THERMAL ZONE 3 ASHRAE_90.1-2004 CLIMATEZONE 1-8 MEDIUMOFFICE WHOLEBUILDING LIGHTS,MEDIUM OFFICE_BLDG_LIGHT,THERMAL ZONE 3,49.96,2.7,537.765,10.764,200.000,0.000,0.000,0.000,1.000,1.000,General,0.000,537.765
 Lights Internal Gains, THERMAL ZONE 30 ASHRAE_90.1-2004 CLIMATEZONE 1-8 MEDIUMOFFICE WHOLEBUILDING LIGHTS,MEDIUM OFFICE_BLDG_LIGHT,THERMAL ZONE 30,57.16,3.1,615.265,10.764,200.000,0.000,0.000,0.000,1.000,1.000,General,0.000,615.265
 Lights Internal Gains, THERMAL ZONE 31 ASHRAE_90.1-2004 CLIMATEZONE 1-8 MEDIUMOFFICE WHOLEBUILDING LIGHTS,MEDIUM OFFICE_BLDG_LIGHT,THERMAL ZONE 31,57.16,3.1,615.265,10.764,200.000,0.000,0.000,0.000,1.000,1.000,General,0.000,615.265
 Lights Internal Gains, THERMAL ZONE 32 ASHRAE_90.1-2004 CLIMATEZONE 1-8 MEDIUMOFFICE WHOLEBUILDING LIGHTS,MEDIUM OFFICE_BLDG_LIGHT,THERMAL ZONE 32,49.96,2.7,537.765,10.764,200.000,0.000,0.000,0.000,1.000,1.000,General,0.000,537.765
 Lights Internal Gains, THERMAL ZONE 33 ASHRAE_90.1-2004 CLIMATEZONE 1-8 MEDIUMOFFICE WHOLEBUILDING LIGHTS,MEDIUM OFFICE_BLDG_LIGHT,THERMAL ZONE 33,57.16,3.1,615.265,10.764,200.000,0.000,0.000,0.000,1.000,1.000,General,0.000,615.265
 Lights Internal Gains, THERMAL ZONE 34 ASHRAE_90.1-2004 CLIMATEZONE 1-8 MEDIUMOFFICE WHOLEBUILDING LIGHTS,MEDIUM OFFICE_BLDG_LIGHT,THERMAL ZONE 34,49.96,2.7,537.765,10.764,200.000,0.000,0.000,0.000,1.000,1.000,General,0.000,537.765
 Lights Internal Gains, THERMAL ZONE 35 ASHRAE_90.1-2004 CLIMATEZONE 1-8 MEDIUMOFFICE WHOLEBUILDING LIGHTS,MEDIUM OFFICE_BLDG_LIGHT,THERMAL ZONE 35,849.23,45.7,9141.075,10.764,200.000,0.000,0.000,0.000,1.000,1.000,General,0.000,9141.075
 Lights Internal Gains, THERMAL ZONE 36 ASHRAE_90.1-2004 CLIMATEZONE 1-8 MEDIUMOFFICE WHOLEBUILDING LIGHTS,MEDIUM OFFICE_BLDG_LIGHT,THERMAL ZONE 36,346.12,18.6,3725.605,10.764,200.000,0.000,0.000,0.000,1.000,1.000,General,0.000,3725.605
 Lights Internal Gains, THERMAL ZONE 37 ASHRAE_90.1-2004 CLIMATEZONE 1-8 MEDIUMOFFICE WHOLEBUILDING LIGHTS,MEDIUM OFFICE_BLDG_LIGHT,THERMAL ZONE 37,152.40,8.2,1640.420,10.764,200.000,0.000,0.000,0.000,1.000,1.000,General,0.000,1640.420
 Lights Internal Gains, THERMAL ZONE 38 ASHRAE_90.1-2004 CLIMATEZONE 1-8 MEDIUMOFFICE WHOLEBUILDING LIGHTS,MEDIUM OFFICE_BLDG_LIGHT,THERMAL ZONE 38,346.12,18.6,3725.605,10.764,200.000,0.000,0.000,0.000,1.000,1.000,General,0.000,3725.605
 Lights Internal Gains, THERMAL ZONE 39 ASHRAE_90.1-2004 CLIMATEZONE 1-8 MEDIUMOFFICE WHOLEBUILDING LIGHTS,MEDIUM OFFICE_BLDG_LIGHT,THERMAL ZONE 39,94.17,5.1,1013.687,10.764,200.000,0.000,0.000,0.000,1.000,1.000,General,0.000,1013.687
 Lights Internal Gains, THERMAL ZONE 4 ASHRAE_90.1-2004 CLIMATEZONE 1-8 MEDIUMOFFICE WHOLEBUILDING LIGHTS,MEDIUM OFFICE_BLDG_LIGHT,THERMAL ZONE 4,49.96,2.7,537.765,10.764,200.000,0.000,0.000,0.000,1.000,1.000,General,0.000,537.765
 Lights Internal Gains, THERMAL ZONE 40 ASHRAE_90.1-2004 CLIMATEZONE 1-8 MEDIUMOFFICE WHOLEBUILDING LIGHTS,MEDIUM OFFICE_BLDG_LIGHT,THERMAL ZONE 40,152.40,8.2,1640.420,10.764,200.000,0.000,0.000,0.000,1.000,1.000,General,0.000,1640.420
 Lights Internal Gains, THERMAL ZONE 5 ASHRAE_90.1-2004 CLIMATEZONE 1-8 MEDIUMOFFICE WHOLEBUILDING LIGHTS,MEDIUM OFFICE_BLDG_LIGHT,THERMAL ZONE 5,49.96,2.7,537.765,10.764,200.000,0.000,0.000,0.000,1.000,1.000,General,0.000,537.765
 Lights Internal Gains, THERMAL ZONE 6 ASHRAE_90.1-2004 CLIMATEZONE 1-8 MEDIUMOFFICE WHOLEBUILDING LIGHTS,MEDIUM OFFICE_BLDG_LIGHT,THERMAL ZONE 6,152.40,8.2,1640.420,10.764,200.000,0.000,0.000,0.000,1.000,1.000,General,0.000,1640.420
 Lights Internal Gains, THERMAL ZONE 7 ASHRAE_90.1-2004 CLIMATEZONE 1-8 MEDIUMOFFICE WHOLEBUILDING LIGHTS,MEDIUM OFFICE_BLDG_LIGHT,THERMAL ZONE 7,147.56,7.9,1588.323,10.764,200.000,0.000,0.000,0.000,1.000,1.000,General,0.000,1588.323
 Lights Internal Gains, THERMAL ZONE 8 ASHRAE_90.1-2004 CLIMATEZONE 1-8 MEDIUMOFFICE WHOLEBUILDING LIGHTS,MEDIUM OFFICE_BLDG_LIGHT,THERMAL ZONE 8,147.56,7.9,1588.323,10.764,200.000,0.000,0.000,0.000,1.000,1.000,General,0.000,1588.323
 Lights Internal Gains, THERMAL ZONE 9 ASHRAE_90.1-2004 CLIMATEZONE 1-8 MEDIUMOFFICE WHOLEBUILDING LIGHTS,MEDIUM OFFICE_BLDG_LIGHT,THERMAL ZONE 9,152.40,8.2,1640.420,10.764,200.000,0.000,0.000,0.000,1.000,1.000,General,0.000,1640.420
! <ElectricEquipment Internal Gains - Nominal>,Name,Schedule Name,Zone Name,Zone Floor Area {m2},# Zone Occupants,Equipment Level {W},Equipment/Floor Area {W/m2},Equipment per person {W/person},Fraction Latent,Fraction Radiant,Fraction Lost,Fraction Convected,End-Use SubCategory,Nominal Minimum Equipment Level {W},Nominal Maximum Equipment Level {W}
 ElectricEquipment Internal Gains, THERMAL ZONE 1 ASHRAE_90.1-2004 CLIMATEZONE 1-8 MEDIUMOFFICE WHOLEBUILDING ELECTRIC EQUIPMENT,MEDIUM OFFICE_BLDG_EQUIP,THERMAL ZONE 1,147.56,7.9,1588.323,10.764,200.000,0.000,0.000,0.000,1.000,General,0.000,1588.323
 ElectricEquipment Internal Gains, THERMAL ZONE 10 ASHRAE_90.1-2004 CLIMATEZONE 1-8 MEDIUMOFFICE WHOLEBUILDING ELECTRIC EQUIPMENT,MEDIUM OFFICE_BLDG_EQUIP,THERMAL ZONE 10,849.23,45.7,9141.075,10.764,200.000,0.000,0.000,0.000,1.000,General,0.000,9141.075
 ElectricEquipment Internal Gains, THERMAL ZONE 11 ASHRAE_90.1-2004 CLIMATEZONE 1-8 MEDIUMOFFICE WHOLEBUILDING ELECTRIC EQUIPMENT,MEDIUM OFFICE_BLDG_EQUIP,THERMAL ZONE 11,49.96,2.7,537.765,10.764,200.000,0.000,0.000,0.000,1.000,General,0.000,537.765
 ElectricEquipment Internal Gains, THERMAL ZONE 12 ASHRAE_90.1-2004 CLIMATEZONE 1-8 MEDIUMOFFICE WHOLEBUILDING ELECTRIC EQUIPMENT,MEDIUM OFFICE_BLDG_EQUIP,THERMAL ZONE 12,94.17,5.1,1013.687,10.764,200.000,0.000,0.000,0.000,1.000,General,0.000,1013.687
 ElectricEquipment Internal Gains, THERMAL ZONE 13 ASHRAE_90.1-2004 CLIMATEZONE 1-8 MEDIUMOFFICE WHOLEBUILDING ELECTRIC EQUIPMENT,MEDIUM OFFICE_BLDG_EQUIP,THERMAL ZONE 13,49.96,2.7,537.765,10.764,200.000,0.000,0.000,0.000,1.000,General,0.000,537.765
 ElectricEquipment Internal Gains, THERMAL ZONE 14 ASHRAE_90.1-2004 CLIMATEZONE 1-8 MEDIUMOFFICE WHOLEBUILDING ELECTRIC EQUIPMENT,MEDIUM OFFICE_BLDG_EQUIP,THERMAL ZONE 14,849.23,45.7,9141.075,10.764,200.000,0.000,0.000,0.000,1.000,General,0.000,9141.075
 ElectricEquipment Internal Gains, THERMAL ZONE 15 ASHRAE_90.1-2004 CLIMATEZONE 1-8 MEDIUMOFFICE WHOLEBUILDING ELECTRIC EQUIPMENT,MEDIUM OFFICE_BLDG_EQUIP,THERMAL ZONE 15,46.16,2.5,496.862,10.764,200.000,0.000,0.000,0.000,1.000,General,0.000,496.862
 ElectricEquipment Internal Gains, THERMAL ZONE 16 ASHRAE_90.1-2004 CLIMATEZONE 1-8 MEDIUMOFFICE WHOLEBUILDING ELECTRIC EQUIPMENT,MEDIUM OFFICE_BLDG_EQUIP,THERMAL ZONE 16,57.16,3.1,615.265,10.764,200.000,0.000,0.000,0.000,1.000,General,0.000,615.265
 ElectricEquipment Internal Gains, THERMAL ZONE 17 ASHRAE_90.1-2004 CLIMATEZONE 1-8 MEDIUMOFFICE WHOLEBUILDING ELECTRIC EQUIPMENT,MEDIUM OFFICE_BLDG_EQUIP,THERMAL ZONE 17,346.12,18.6,3725.605,10.764,200.000,0.000,0.000,0.000,1.000,General,0.000,3725.605
 ElectricEquipment Internal Gains, THERMAL ZONE 18 ASHRAE_90.1-2004 CLIMATEZONE 1-8 MEDIUMOFFICE WHOLEBUILDING ELECTRIC EQUIPMENT,MEDIUM OFFICE_BLDG_EQUIP,THERMAL ZONE 18,46.16,2.5,496.862,10.764,200.000,0.000,0.000,0.000,1.000,General,0.000,496.862
 ElectricEquipment Internal Gains, THERMAL ZONE 19 ASHRAE_90.1-2004 CLIMATEZONE 1-8 MEDIUMOFFICE WHOLEBUILDING ELECTRIC EQUIPMENT,MEDIUM OFFICE_BLDG_EQUIP,THERMAL ZONE 19,346.12,18.6,3725.605,10.764,200.000,0.000,0.000,0.000,1.000,General,0.000,3725.605
 ElectricEquipment Internal Gains, THERMAL ZONE 2 ASHRAE_90.1-2004 CLIMATEZONE 1-8 MEDIUMOFFICE WHOLEBUILDING ELECTRIC EQUIPMENT,MEDIUM OFFICE_BLDG_EQUIP,THERMAL ZONE 2,94.17,5.1,1013.687,10.764,200.000,0.000,0.000,0.000,1.000,General,0.000,1013.687
 ElectricEquipment Internal Gains, THERMAL ZONE 20 ASHRAE_90.1-2004 CLIMATEZONE 1-8 MEDIUMOFFICE WHOLEBUILDING ELECTRIC EQUIPMENT,MEDIUM OFFICE_BLDG_EQUIP,THERMAL ZONE 20,849.23,45.7,9141.075,10.764,200.000,0.000,0.000,0.000,1.000,General,0.000,9141.075
 ElectricEquipment Internal Gains, THERMAL ZONE 21 ASHRAE_90.1-2004 CLIMATEZONE 1-8 MEDIUMOFFICE WHOLEBUILDING ELECTRIC EQUIPMENT,MEDIUM OFFICE_BLDG_EQUIP,THERMAL ZONE 21,49.96,2.7,537.765,10.764,200.000,0.000,0.000,0.000,1.000,General,0.000,537.765
 ElectricEquipment Internal Gains, THERMAL ZONE 22 ASHRAE_90.1-2004 CLIMATEZONE 1-8 MEDIUMOFFICE WHOLEBUILDING ELECTRIC EQUIPMENT,MEDIUM OFFICE_BLDG_EQUIP,THERMAL ZONE 22,57.16,3.1,615.265,10.764,200.000,0.000,0.000,0.000,1.000,General,0.000,615.265
 ElectricEquipment Internal Gains, THERMAL ZONE 23 ASHRAE_90.1-2004 CLIMATEZONE 1-8 MEDIUMOFFICE WHOLEBUILDING ELECTRIC EQUIPMENT,MEDIUM OFFICE_BLDG_EQUIP,THERMAL ZONE 23,147.56,7.9,1588.323,10.764,200.000,0.000,0.000,0.000,1.000,General,0.000,1588.323
 ElectricEquipment Internal Gains, THERMAL ZONE 24 ASHRAE_90.1-2004 CLIMATEZONE 1-8 MEDIUMOFFICE WHOLEBUILDING ELECTRIC EQUIPMENT,MEDIUM OFFICE_BLDG_EQUIP,THERMAL ZONE 24,94.17,5.1,1013.687,10.764,200.000,0.000,0.000,0.000,1.000,General,0.000,1013.687
 ElectricEquipment Internal Gains, THERMAL ZONE 25 ASHRAE_90.1-2004 CLIMATEZONE 1-8 MEDIUMOFFICE WHOLEBUILDING ELECTRIC EQUIPMENT,MEDIUM OFFICE_BLDG_EQUIP,THERMAL ZONE 25,57.16,3.1,615.265,10.764,200.000,0.000,0.000,0.000,1.000,General,0.000,615.265
 ElectricEquipment Internal Gains, THERMAL ZONE 26 ASHRAE_90.1-2004 CLIMATEZONE 1-8 MEDIUMOFFICE WHOLEBUILDING ELECTRIC EQUIPMENT,MEDIUM OFFICE_BLDG_EQUIP,THERMAL ZONE 26,57.16,3.1,615.265,10.764,200.000,0.000,0.000,0.000,1.000,General,0.000,615.265
 ElectricEquipment Internal Gains, THERMAL ZONE 27 ASHRAE_90.1-2004 CLIMATEZONE 1-8 MEDIUMOFFICE WHOLEBUILDING ELECTRIC EQUIPMENT,MEDIUM OFFICE_BLDG_EQUIP,THERMAL ZONE 27,46.16,2.5,496.862,10.764,200.000,0.000,0.000,0.000,1.000,General,0.000,496.862
 ElectricEquipment Internal Gains, THERMAL ZONE 28 ASHRAE_90.1-2004 CLIMATEZONE 1-8 MEDIUMOFFICE WHOLEBUILDING ELECTRIC EQUIPMENT,MEDIUM OFFICE_BLDG_EQUIP,THERMAL ZONE 28,57.16,3.1,615.265,10.764,200.000,0.000,0.000,0.000,1.000,General,0.000,615.265
 ElectricEquipment Internal Gains, THERMAL ZONE 29 ASHRAE_90.1-2004 CLIMATEZONE 1-8 MEDIUMOFFICE WHOLEBUILDING ELECTRIC EQUIPMENT,MEDIUM OFFICE_BLDG_EQUIP,THERMAL ZONE 29,46.16,2.5,496.862,10.764,200.000,0.000,0.000,0.000,1.000,General,0.000,496.862
 ElectricEquipment Internal Gains, THERMAL ZONE 3 ASHRAE_90.1-2004 CLIMATEZONE 1-8 MEDIUMOFFICE WHOLEBUILDING ELECTRIC EQUIPMENT,MEDIUM OFFICE_BLDG_EQUIP,THERMAL ZONE 3,49.96,2.7,537.765,10.764,200.000,0.000,0.000,0.000,1.000,General,0.000,537.765
 ElectricEquipment Internal Gains, THERMAL ZONE 30 ASHRAE_90.1-2004 CLIMATEZONE 1-8 MEDIUMOFFICE WHOLEBUILDING ELECTRIC EQUIPMENT,MEDIUM OFFICE_BLDG_EQUIP,THERMAL ZONE 30,57.16,3.1,615.265,10.764,200.000,0.000,0.000,0.000,1.000,General,0.000,615.265
 ElectricEquipment Internal Gains, THERMAL ZONE 31 ASHRAE_90.1-2004 CLIMATEZONE 1-8 MEDIUMOFFICE WHOLEBUILDING ELECTRIC EQUIPMENT,MEDIUM OFFICE_BLDG_EQUIP,THERMAL ZONE 31,57.16,3.1,615.265,10.764,200.000,0.000,0.000,0.000,1.000,General,0.000,615.265
 ElectricEquipment Internal Gains, THERMAL ZONE 32 ASHRAE_90.1-2004 CLIMATEZONE 1-8 MEDIUMOFFICE WHOLEBUILDING ELECTRIC EQUIPMENT,MEDIUM OFFICE_BLDG_EQUIP,THERMAL ZONE 32,49.96,2.7,537.765,10.764,200.000,0.000,0.000,0.000,1.000,General,0.000,537.765
 ElectricEquipment Internal Gains, THERMAL ZONE 33 ASHRAE_90.1-2004 CLIMATEZONE 1-8 MEDIUMOFFICE WHOLEBUILDING ELECTRIC EQUIPMENT,MEDIUM OFFICE_BLDG_EQUIP,THERMAL ZONE 33,57.16,3.1,615.265,10.764,200.000,0.000,0.000,0.000,1.000,General,0.000,615.265
 ElectricEquipment Internal Gains, THERMAL ZONE 34 ASHRAE_90.1-2004 CLIMATEZONE 1-8 MEDIUMOFFICE WHOLEBUILDING ELECTRIC EQUIPMENT,MEDIUM OFFICE_BLDG_EQUIP,THERMAL ZONE 34,49.96,2.7,537.765,10.764,200.000,0.000,0.000,0.000,1.000,General,0.000,537.765
 ElectricEquipment Internal Gains, THERMAL ZONE 35 ASHRAE_90.1-2004 CLIMATEZONE 1-8 MEDIUMOFFICE WHOLEBUILDING ELECTRIC EQUIPMENT,MEDIUM OFFICE_BLDG_EQUIP,THERMAL ZONE 35,849.23,45.7,9141.075,10.764,200.000,0.000,0.000,0.000,1.000,General,0.000,9141.075
 ElectricEquipment Internal Gains, THERMAL ZONE 36 ASHRAE_90.1-2004 CLIMATEZONE 1-8 MEDIUMOFFICE WHOLEBUILDING ELECTRIC EQUIPMENT,MEDIUM OFFICE_BLDG_EQUIP,THERMAL ZONE 36,346.12,18.6,3725.605,10.764,200.000,0.000,0.000,0.000,1.000,General,0.000,3725.605
 ElectricEquipment Internal Gains, THERMAL ZONE 37 ASHRAE_90.1-2004 CLIMATEZONE 1-8 MEDIUMOFFICE WHOLEBUILDING ELECTRIC EQUIPMENT,MEDIUM OFFICE_BLDG_EQUIP,THERMAL ZONE 37,152.40,8.2,1640.420,10.764,200.000,0.000,0.000,0.000,1.000,General,0.000,1640.420
 ElectricEquipment Internal Gains, THERMAL ZONE 38 ASHRAE_90.1-2004 CLIMATEZONE 1-8 MEDIUMOFFICE WHOLEBUILDING ELECTRIC EQUIPMENT,MEDIUM OFFICE_BLDG_EQUIP,THERMAL ZONE 38,346.12,18.6,3725.605,10.764,200.000,0.000,0.000,0.000,1.000,General,0.000,3725.605
 ElectricEquipment Internal Gains, THERMAL ZONE 39 ASHRAE_90.1-2004 CLIMATEZONE 1-8 MEDIUMOFFICE WHOLEBUILDING ELECTRIC EQUIPMENT,MEDIUM OFFICE_BLDG_EQUIP,THERMAL ZONE 39,94.17,5.1,1013.687,10.764,200.000,0.000,0.000,0.000,1.000,General,0.000,1013.687
 ElectricEquipment Internal Gains, THERMAL ZONE 4 ASHRAE_90.1-2004 CLIMATEZONE 1-8 MEDIUMOFFICE WHOLEBUILDING ELECTRIC EQUIPMENT,MEDIUM OFFICE_BLDG_EQUIP,THERMAL ZONE 4,49.96,2.7,537.765,10.764,200.000,0.000,0.000,0.000,1.000,General,0.000,537.765
 ElectricEquipment Internal Gains, THERMAL ZONE 40 ASHRAE_90.1-2004 CLIMATEZONE 1-8 MEDIUMOFFICE WHOLEBUILDING ELECTRIC EQUIPMENT,MEDIUM OFFICE_BLDG_EQUIP,THERMAL ZONE 40,152.40,8.2,1640.420,10.764,200.000,0.000,0.000,0.000,1.000,General,0.000,1640.420
 ElectricEquipment Internal Gains, THERMAL ZONE 5 ASHRAE_90.1-2004 CLIMATEZONE 1-8 MEDIUMOFFICE WHOLEBUILDING ELECTRIC EQUIPMENT,MEDIUM OFFICE_BLDG_EQUIP,THERMAL ZONE 5,49.96,2.7,537.765,10.764,200.000,0.000,0.000,0.000,1.000,General,0.000,537.765
 ElectricEquipment Internal Gains, THERMAL ZONE 6 ASHRAE_90.1-2004 CLIMATEZONE 1-8 MEDIUMOFFICE WHOLEBUILDING ELECTRIC EQUIPMENT,MEDIUM OFFICE_BLDG_EQUIP,THERMAL ZONE 6,152.40,8.2,1640.420,10.764,200.000,0.000,0.000,0.000,1.000,General,0.000,1640.420
 ElectricEquipment Internal Gains, THERMAL ZONE 7 ASHRAE_90.1-2004 CLIMATEZONE 1-8 MEDIUMOFFICE WHOLEBUILDING ELECTRIC EQUIPMENT,MEDIUM OFFICE_BLDG_EQUIP,THERMAL ZONE 7,147.56,7.9,1588.323,10.764,200.000,0.000,0.000,0.000,1.000,General,0.000,1588.323
 ElectricEquipment Internal Gains, THERMAL ZONE 8 ASHRAE_90.1-2004 CLIMATEZONE 1-8 MEDIUMOFFICE WHOLEBUILDING ELECTRIC EQUIPMENT,MEDIUM OFFICE_BLDG_EQUIP,THERMAL ZONE 8,147.56,7.9,1588.323,10.764,200.000,0.000,0.000,0.000,1.000,General,0.000,1588.323
 ElectricEquipment Internal Gains, THERMAL ZONE 9 ASHRAE_90.1-2004 CLIMATEZONE 1-8 MEDIUMOFFICE WHOLEBUILDING ELECTRIC EQUIPMENT,MEDIUM OFFICE_BLDG_EQUIP,THERMAL ZONE 9,152.40,8.2,1640.420,10.764,200.000,0.000,0.000,0.000,1.000,General,0.000,1640.420
! <Shadowing/Sun Position Calculations> [Annual Simulations], Calculation Method,Value {days}, Allowable Number Figures in Shadow Overlap {}, Polygon Clipping Algorithm, Sky Diffuse Modeling Algorithm
Shadowing/Sun Position Calculations,AverageOverDaysInFrequency,20,15000,SutherlandHodgman,SimpleSkyDiffuseModeling
! <Infiltration Airflow Stats - Nominal>,Name,Schedule Name,Zone Name, Zone Floor Area {m2}, # Zone Occupants,Design Volume Flow Rate {m3/s},Volume Flow Rate/Floor Area {m3/s/m2},Volume Flow Rate/Exterior Surface Area {m3/s/m2},ACH - Air Changes per Hour,Equation A - Constant Term Coefficient {},Equation B - Temperature Term Coefficient {1/C},Equation C - Velocity Term Coefficient {s/m}, Equation D - Velocity Squared Term Coefficient {s2/m2}
 ZoneInfiltration Airflow Stats, SPACE INFILTRATION DESIGN FLOW RATE 1,MEDIUM OFFICE_INFIL_QUARTER_ON,THERMAL ZONE 1,147.56,7.9,0.115,7.784E-004,2.684E-004,0.737,0.000,0.000,0.172,1.157E-002
 ZoneInfiltration Airflow Stats, SPACE INFILTRATION DESIGN FLOW RATE 10,MEDIUM OFFICE_INFIL_QUARTER_ON,THERMAL ZONE 10,849.23,45.7,0.128,1.511E-004,4.091E-004,0.143,0.000,0.000,0.172,1.157E-002
 ZoneInfiltration Airflow Stats, SPACE INFILTRATION DESIGN FLOW RATE 11,MEDIUM OFFICE_INFIL_QUARTER_ON,THERMAL ZONE 11,49.96,2.7,2.383E-002,4.770E-004,5.021E-004,0.452,0.000,0.000,0.172,1.157E-002
 ZoneInfiltration Airflow Stats, SPACE INFILTRATION DESIGN FLOW RATE 12,MEDIUM OFFICE_INFIL_QUARTER_ON,THERMAL ZONE 12,94.17,5.1,1.287E-002,1.367E-004,4.492E-004,0.129,0.000,0.000,0.172,1.157E-002
 ZoneInfiltration Airflow Stats, SPACE INFILTRATION DESIGN FLOW RATE 13,MEDIUM OFFICE_INFIL_QUARTER_ON,THERMAL ZONE 13,49.96,2.7,2.402E-002,4.808E-004,5.061E-004,0.455,0.000,0.000,0.172,1.157E-002
 ZoneInfiltration Airflow Stats, SPACE INFILTRATION DESIGN FLOW RATE 14,MEDIUM OFFICE_INFIL_QUARTER_ON,THERMAL ZONE 14,849.23,45.7,0.144,1.696E-004,1.239E-004,0.161,0.000,0.000,0.172,1.157E-002
 ZoneInfiltration Airflow Stats, SPACE INFILTRATION DESIGN FLOW RATE 15,MEDIUM OFFICE_INFIL_QUARTER_ON,THERMAL ZONE 15,46.16,2.5,2.395E-002,5.188E-004,2.276E-004,0.492,0.000,0.000,0.172,1.157E-002
 ZoneInfiltration Airflow Stats, SPACE INFILTRATION DESIGN FLOW RATE 16,MEDIUM OFFICE_INFIL_QUARTER_ON,THERMAL ZONE 16,57.16,3.1,3.736E-002,6.536E-004,5.375E-004,0.619,0.000,0.000,0.172,1.157E-002
 ZoneInfiltration Airflow Stats, SPACE INFILTRATION DESIGN FLOW RATE 17,MEDIUM OFFICE_INFIL_QUARTER_ON,THERMAL ZONE 17,346.12,18.6,0.126,3.638E-004,3.660E-004,0.345,0.000,0.000,0.172,1.156E-002
 ZoneInfiltration Airflow Stats, SPACE INFILTRATION DESIGN FLOW RATE 18,MEDIUM OFFICE_INFIL_QUARTER_ON,THERMAL ZONE 18,46.16,2.5,2.274E-002,4.926E-004,3.850E-004,0.467,0.000,0.000,0.172,1.157E-002
 ZoneInfiltration Airflow Stats, SPACE INFILTRATION DESIGN FLOW RATE 19,MEDIUM OFFICE_INFIL_QUARTER_ON,THERMAL ZONE 19,346.12,18.6,0.130,3.743E-004,3.766E-004,0.355,0.000,0.000,0.172,1.157E-002
 ZoneInfiltration Airflow Stats, SPACE INFILTRATION DESIGN FLOW RATE 2,MEDIUM OFFICE_INFIL_QUARTER_ON,THERMAL ZONE 2,94.17,5.1,1.304E-002,1.385E-004,4.551E-004,0.131,0.000,0.000,0.172,1.156E-002
 ZoneInfiltration Airflow Stats, SPACE INFILTRATION DESIGN FLOW RATE 20,MEDIUM OFFICE_INFIL_QUARTER_ON,THERMAL ZONE 20,849.23,45.7,0.124,1.461E-004,3.957E-004,0.138,0.000,0.000,0.172,1.156E-002
 ZoneInfiltration Airflow Stats, SPACE INFILTRATION DESIGN FLOW RATE 21,MEDIUM OFFICE_INFIL_QUARTER_ON,THERMAL ZONE 21,49.96,2.7,2.383E-002,4.770E-004,5.021E-004,0.452,0.000,0.000,0.172,1.157E-002
 ZoneInfiltration Airflow Stats, SPACE INFILTRATION DESIGN FLOW RATE 22,MEDIUM OFFICE_INFIL_QUARTER_ON,THERMAL ZONE 22,57.16,3.1,3.722E-002,6.512E-004,5.356E-004,0.617,0.000,0.000,0.172,1.156E-002
 ZoneInfiltration Airflow Stats, SPACE INFILTRATION DESIGN FLOW RATE 23,MEDIUM OFFICE_INFIL_QUARTER_ON,THERMAL ZONE 23,147.56,7.9,0.105,7.117E-004,3.746E-004,0.674,0.000,0.000,0.172,1.157E-002
 ZoneInfiltration Airflow Stats, SPACE INFILTRATION DESIGN FLOW RATE 24,MEDIUM OFFICE_INFIL_QUARTER_ON,THERMAL ZONE 24,94.17,5.1,1.281E-002,1.361E-004,4.473E-004,0.129,0.000,0.000,0.172,1.156E-002
 ZoneInfiltration Airflow Stats, SPACE INFILTRATION DESIGN FLOW RATE 25,MEDIUM OFFICE_INFIL_QUARTER_ON,THERMAL ZONE 25,57.16,3.1,3.780E-002,6.612E-004,5.438E-004,0.626,0.000,0.000,0.172,1.157E-002
 ZoneInfiltration Airflow Stats, SPACE INFILTRATION DESIGN FLOW RATE 26,MEDIUM OFFICE_INFIL_QUARTER_ON,THERMAL ZONE 26,57.16,3.1,3.891E-002,6.807E-004,3.072E-004,0.645,0.000,0.000,0.172,1.157E-002
 ZoneInfiltration Airflow Stats, SPACE INFILTRATION DESIGN FLOW RATE 27,MEDIUM OFFICE_INFIL_QUARTER_ON,THERMAL ZONE 27,46.16,2.5,2.202E-002,4.769E-004,3.728E-004,0.452,0.000,0.000,0.172,1.157E-002
 ZoneInfiltration Airflow Stats, SPACE INFILTRATION DESIGN FLOW RATE 28,MEDIUM OFFICE_INFIL_QUARTER_ON,THERMAL ZONE 28,57.16,3.1,3.891E-002,6.808E-004,3.072E-004,0.645,0.000,0.000,0.172,1.157E-002
 ZoneInfiltration Airflow Stats, SPACE INFILTRATION DESIGN FLOW RATE 29,MEDIUM OFFICE_INFIL_QUARTER_ON,THERMAL ZONE 29,46.16,2.5,2.219E-002,4.807E-004,3.758E-004,0.455,0.000,0.000,0.172,1.156E-002
 ZoneInfiltration Airflow Stats, SPACE INFILTRATION DESIGN FLOW RATE 3,MEDIUM OFFICE_INFIL_QUARTER_ON,THERMAL ZONE 3,49.96,2.7,2.459E-002,4.923E-004,5.182E-004,0.466,0.000,0.000,0.172,1.156E-002
 ZoneInfiltration Airflow Stats, SPACE INFILTRATION DESIGN FLOW RATE 30,MEDIUM OFFICE_INFIL_QUARTER_ON,THERMAL ZONE 30,57.16,3.1,3.735E-002,6.534E-004,5.374E-004,0.619,0.000,0.000,0.172,1.157E-002
 ZoneInfiltration Airflow Stats, SPACE INFILTRATION DESIGN FLOW RATE 31,MEDIUM OFFICE_INFIL_QUARTER_ON,THERMAL ZONE 31,57.16,3.1,3.722E-002,6.511E-004,5.355E-004,0.617,0.000,0.000,0.172,1.157E-002
 ZoneInfiltration Airflow Stats, SPACE INFILTRATION DESIGN FLOW RATE 32,MEDIUM OFFICE_INFIL_QUARTER_ON,THERMAL ZONE 32,49.96,2.7,2.402E-002,4.808E-004,5.061E-004,0.456,0.000,0.000,0.172,1.157E-002
 ZoneInfiltration Airflow Stats, SPACE INFILTRATION DESIGN FLOW RATE 33,MEDIUM OFFICE_INFIL_QUARTER_ON,THERMAL ZONE 33,57.16,3.1,3.780E-002,6.613E-004,5.439E-004,0.627,0.000,0.000,0.172,1.157E-002
 ZoneInfiltration Airflow Stats, SPACE INFILTRATION DESIGN FLOW RATE 34,MEDIUM OFFICE_INFIL_QUARTER_ON,THERMAL ZONE 34,49.96,2.7,2.578E-002,5.160E-004,2.646E-004,0.489,0.000,0.000,0.172,1.157E-002
 ZoneInfiltration Airflow Stats, SPACE INFILTRATION DESIGN FLOW RATE 35,MEDIUM OFFICE_INFIL_QUARTER_ON,THERMAL ZONE 35,849.23,45.7,0.125,1.473E-004,3.990E-004,0.140,0.000,0.000,0.172,1.157E-002
 ZoneInfiltration Airflow Stats, SPACE INFILTRATION DESIGN FLOW RATE 36,MEDIUM OFFICE_INFIL_QUARTER_ON,THERMAL ZONE 36,346.12,18.6,0.125,3.603E-004,3.626E-004,0.341,0.000,0.000,0.172,1.157E-002
 ZoneInfiltration Airflow Stats, SPACE INFILTRATION DESIGN FLOW RATE 37,MEDIUM OFFICE_INFIL_QUARTER_ON,THERMAL ZONE 37,152.40,8.2,0.107,7.049E-004,3.710E-004,0.668,0.000,0.000,0.172,1.157E-002
 ZoneInfiltration Airflow Stats, SPACE INFILTRATION DESIGN FLOW RATE 38,MEDIUM OFFICE_INFIL_QUARTER_ON,THERMAL ZONE 38,346.12,18.6,0.147,4.239E-004,2.126E-004,0.402,0.000,0.000,0.172,1.157E-002
 ZoneInfiltration Airflow Stats, SPACE INFILTRATION DESIGN FLOW RATE 39,MEDIUM OFFICE_INFIL_QUARTER_ON,THERMAL ZONE 39,94.17,5.1,1.338E-002,1.421E-004,1.090E-004,0.135,0.000,0.000,0.172,1.157E-002
 ZoneInfiltration Airflow Stats, SPACE INFILTRATION DESIGN FLOW RATE 4,MEDIUM OFFICE_INFIL_QUARTER_ON,THERMAL ZONE 4,49.96,2.7,2.578E-002,5.159E-004,2.646E-004,0.489,0.000,0.000,0.172,1.157E-002
 ZoneInfiltration Airflow Stats, SPACE INFILTRATION DESIGN FLOW RATE 40,MEDIUM OFFICE_INFIL_QUARTER_ON,THERMAL ZONE 40,152.40,8.2,0.108,7.099E-004,3.736E-004,0.673,0.000,0.000,0.172,1.157E-002
 ZoneInfiltration Airflow Stats, SPACE INFILTRATION DESIGN FLOW RATE 5,MEDIUM OFFICE_INFIL_QUARTER_ON,THERMAL ZONE 5,49.96,2.7,2.460E-002,4.923E-004,5.182E-004,0.466,0.000,0.000,0.172,1.157E-002
 ZoneInfiltration Airflow Stats, SPACE INFILTRATION DESIGN FLOW RATE 6,MEDIUM OFFICE_INFIL_QUARTER_ON,THERMAL ZONE 6,152.40,8.2,0.119,7.779E-004,2.683E-004,0.737,0.000,0.000,0.172,1.157E-002
 ZoneInfiltration Airflow Stats, SPACE INFILTRATION DESIGN FLOW RATE 7,MEDIUM OFFICE_INFIL_QUARTER_ON,THERMAL ZONE 7,147.56,7.9,0.107,7.278E-004,3.831E-004,0.690,0.000,0.000,0.172,1.157E-002
 ZoneInfiltration Airflow Stats, SPACE INFILTRATION DESIGN FLOW RATE 8,MEDIUM OFFICE_INFIL_QUARTER_ON,THERMAL ZONE 8,147.56,7.9,0.104,7.067E-004,3.719E-004,0.669,0.000,0.000,0.172,1.157E-002
 ZoneInfiltration Airflow Stats, SPACE INFILTRATION DESIGN FLOW RATE 9,MEDIUM OFFICE_INFIL_QUARTER_ON,THERMAL ZONE 9,152.40,8.2,0.111,7.262E-004,3.822E-004,0.688,0.000,0.000,0.172,1.157E-002
! <AirFlow Model>, Simple
 AirFlow Model, Simple
! <RoomAir Model>, Zone Name, Mixing/Mundt/UCSDDV/UCSDCV/UCSDUFI/UCSDUFE/User Defined
RoomAir Model,THERMAL ZONE 1,Mixing/Well-Stirred
RoomAir Model,THERMAL ZONE 10,Mixing/Well-Stirred
RoomAir Model,THERMAL ZONE 11,Mixing/Well-Stirred
RoomAir Model,THERMAL ZONE 12,Mixing/Well-Stirred
RoomAir Model,THERMAL ZONE 13,Mixing/Well-Stirred
RoomAir Model,THERMAL ZONE 14,Mixing/Well-Stirred
RoomAir Model,THERMAL ZONE 15,Mixing/Well-Stirred
RoomAir Model,THERMAL ZONE 16,Mixing/Well-Stirred
RoomAir Model,THERMAL ZONE 17,Mixing/Well-Stirred
RoomAir Model,THERMAL ZONE 18,Mixing/Well-Stirred
RoomAir Model,THERMAL ZONE 19,Mixing/Well-Stirred
RoomAir Model,THERMAL ZONE 2,Mixing/Well-Stirred
RoomAir Model,THERMAL ZONE 20,Mixing/Well-Stirred
RoomAir Model,THERMAL ZONE 21,Mixing/Well-Stirred
RoomAir Model,THERMAL ZONE 22,Mixing/Well-Stirred
RoomAir Model,THERMAL ZONE 23,Mixing/Well-Stirred
RoomAir Model,THERMAL ZONE 24,Mixing/Well-Stirred
RoomAir Model,THERMAL ZONE 25,Mixing/Well-Stirred
RoomAir Model,THERMAL ZONE 26,Mixing/Well-Stirred
RoomAir Model,THERMAL ZONE 27,Mixing/Well-Stirred
RoomAir Model,THERMAL ZONE 28,Mixing/Well-Stirred
RoomAir Model,THERMAL ZONE 29,Mixing/Well-Stirred
RoomAir Model,THERMAL ZONE 3,Mixing/Well-Stirred
RoomAir Model,THERMAL ZONE 30,Mixing/Well-Stirred
RoomAir Model,THERMAL ZONE 31,Mixing/Well-Stirred
RoomAir Model,THERMAL ZONE 32,Mixing/Well-Stirred
RoomAir Model,THERMAL ZONE 33,Mixing/Well-Stirred
RoomAir Model,THERMAL ZONE 34,Mixing/Well-Stirred
RoomAir Model,THERMAL ZONE 35,Mixing/Well-Stirred
RoomAir Model,THERMAL ZONE 36,Mixing/Well-Stirred
RoomAir Model,THERMAL ZONE 37,Mixing/Well-Stirred
RoomAir Model,THERMAL ZONE 38,Mixing/Well-Stirred
RoomAir Model,THERMAL ZONE 39,Mixing/Well-Stirred
RoomAir Model,THERMAL ZONE 4,Mixing/Well-Stirred
RoomAir Model,THERMAL ZONE 40,Mixing/Well-Stirred
RoomAir Model,THERMAL ZONE 5,Mixing/Well-Stirred
RoomAir Model,THERMAL ZONE 6,Mixing/Well-Stirred
RoomAir Model,THERMAL ZONE 7,Mixing/Well-Stirred
RoomAir Model,THERMAL ZONE 8,Mixing/Well-Stirred
RoomAir Model,THERMAL ZONE 9,Mixing/Well-Stirred
! <AirflowNetwork Model:Control>, No Multizone or Distribution/Multizone with Distribution/Multizone without Distribution/Multizone with Distribution only during Fan Operation
AirflowNetwork Model:Control,NoMultizoneOrDistribution
! <Zone Volume Capacitance Multiplier>, Sensible Heat Capacity Multiplier, Moisture Capacity Multiplier, Carbon Dioxide Capacity Multiplier, Generic Contaminant Capacity Multiplier
Zone Volume Capacitance Multiplier,   1.000 ,   1.000,   1.000,   1.000
! <Load Timesteps in Zone Design Calculation Averaging Window>, Value
 Load Timesteps in Zone Design Calculation Averaging Window,    4
! <Heating Sizing Factor Information>, Sizing Factor ID, Value
 Heating Sizing Factor Information, Global,   1.2500    
 Heating Sizing Factor Information, Zone THERMAL ZONE 1,   1.2500    
 Heating Sizing Factor Information, Zone THERMAL ZONE 10,   1.2500    
 Heating Sizing Factor Information, Zone THERMAL ZONE 11,   1.2500    
 Heating Sizing Factor Information, Zone THERMAL ZONE 12,   1.2500    
 Heating Sizing Factor Information, Zone THERMAL ZONE 13,   1.2500    
 Heating Sizing Factor Information, Zone THERMAL ZONE 14,   1.2500    
 Heating Sizing Factor Information, Zone THERMAL ZONE 15,   1.2500    
 Heating Sizing Factor Information, Zone THERMAL ZONE 16,   1.2500    
 Heating Sizing Factor Information, Zone THERMAL ZONE 17,   1.2500    
 Heating Sizing Factor Information, Zone THERMAL ZONE 18,   1.2500    
 Heating Sizing Factor Information, Zone THERMAL ZONE 19,   1.2500    
 Heating Sizing Factor Information, Zone THERMAL ZONE 2,   1.2500    
 Heating Sizing Factor Information, Zone THERMAL ZONE 20,   1.2500    
 Heating Sizing Factor Information, Zone THERMAL ZONE 21,   1.2500    
 Heating Sizing Factor Information, Zone THERMAL ZONE 22,   1.2500    
 Heating Sizing Factor Information, Zone THERMAL ZONE 23,   1.2500    
 Heating Sizing Factor Information, Zone THERMAL ZONE 24,   1.2500    
 Heating Sizing Factor Information, Zone THERMAL ZONE 25,   1.2500    
 Heating Sizing Factor Information, Zone THERMAL ZONE 26,   1.2500    
 Heating Sizing Factor Information, Zone THERMAL ZONE 27,   1.2500    
 Heating Sizing Factor Information, Zone THERMAL ZONE 28,   1.2500    
 Heating Sizing Factor Information, Zone THERMAL ZONE 29,   1.2500    
 Heating Sizing Factor Information, Zone THERMAL ZONE 3,   1.2500    
 Heating Sizing Factor Information, Zone THERMAL ZONE 30,   1.2500    
 Heating Sizing Factor Information, Zone THERMAL ZONE 31,   1.2500    
 Heating Sizing Factor Information, Zone THERMAL ZONE 32,   1.2500    
 Heating Sizing Factor Information, Zone THERMAL ZONE 33,   1.2500    
 Heating Sizing Factor Information, Zone THERMAL ZONE 34,   1.2500    
 Heating Sizing Factor Information, Zone THERMAL ZONE 35,   1.2500    
 Heating Sizing Factor Information, Zone THERMAL ZONE 36,   1.2500    
 Heating Sizing Factor Information, Zone THERMAL ZONE 37,   1.2500    
 Heating Sizing Factor Information, Zone THERMAL ZONE 38,   1.2500    
 Heating Sizing Factor Information, Zone THERMAL ZONE 39,   1.2500    
 Heating Sizing Factor Information, Zone THERMAL ZONE 4,   1.2500    
 Heating Sizing Factor Information, Zone THERMAL ZONE 40,   1.2500    
 Heating Sizing Factor Information, Zone THERMAL ZONE 5,   1.2500    
 Heating Sizing Factor Information, Zone THERMAL ZONE 6,   1.2500    
 Heating Sizing Factor Information, Zone THERMAL ZONE 7,   1.2500    
 Heating Sizing Factor Information, Zone THERMAL ZONE 8,   1.2500    
 Heating Sizing Factor Information, Zone THERMAL ZONE 9,   1.2500    
! <Cooling Sizing Factor Information>, Sizing Factor ID, Value
 Cooling Sizing Factor Information, Global,   1.1500    
 Cooling Sizing Factor Information, Zone THERMAL ZONE 1,   1.1500    
 Cooling Sizing Factor Information, Zone THERMAL ZONE 10,   1.1500    
 Cooling Sizing Factor Information, Zone THERMAL ZONE 11,   1.1500    
 Cooling Sizing Factor Information, Zone THERMAL ZONE 12,   1.1500    
 Cooling Sizing Factor Information, Zone THERMAL ZONE 13,   1.1500    
 Cooling Sizing Factor Information, Zone THERMAL ZONE 14,   1.1500    
 Cooling Sizing Factor Information, Zone THERMAL ZONE 15,   1.1500    
 Cooling Sizing Factor Information, Zone THERMAL ZONE 16,   1.1500    
 Cooling Sizing Factor Information, Zone THERMAL ZONE 17,   1.1500    
 Cooling Sizing Factor Information, Zone THERMAL ZONE 18,   1.1500    
 Cooling Sizing Factor Information, Zone THERMAL ZONE 19,   1.1500    
 Cooling Sizing Factor Information, Zone THERMAL ZONE 2,   1.1500    
 Cooling Sizing Factor Information, Zone THERMAL ZONE 20,   1.1500    
 Cooling Sizing Factor Information, Zone THERMAL ZONE 21,   1.1500    
 Cooling Sizing Factor Information, Zone THERMAL ZONE 22,   1.1500    
 Cooling Sizing Factor Information, Zone THERMAL ZONE 23,   1.1500    
 Cooling Sizing Factor Information, Zone THERMAL ZONE 24,   1.1500    
 Cooling Sizing Factor Information, Zone THERMAL ZONE 25,   1.1500    
 Cooling Sizing Factor Information, Zone THERMAL ZONE 26,   1.1500    
 Cooling Sizing Factor Information, Zone THERMAL ZONE 27,   1.1500    
 Cooling Sizing Factor Information, Zone THERMAL ZONE 28,   1.1500    
 Cooling Sizing Factor Information, Zone THERMAL ZONE 29,   1.1500    
 Cooling Sizing Factor Information, Zone THERMAL ZONE 3,   1.1500    
 Cooling Sizing Factor Information, Zone THERMAL ZONE 30,   1.1500    
 Cooling Sizing Factor Information, Zone THERMAL ZONE 31,   1.1500    
 Cooling Sizing Factor Information, Zone THERMAL ZONE 32,   1.1500    
 Cooling Sizing Factor Information, Zone THERMAL ZONE 33,   1.1500    
 Cooling Sizing Factor Information, Zone THERMAL ZONE 34,   1.1500    
 Cooling Sizing Factor Information, Zone THERMAL ZONE 35,   1.1500    
 Cooling Sizing Factor Information, Zone THERMAL ZONE 36,   1.1500    
 Cooling Sizing Factor Information, Zone THERMAL ZONE 37,   1.1500    
 Cooling Sizing Factor Information, Zone THERMAL ZONE 38,   1.1500    
 Cooling Sizing Factor Information, Zone THERMAL ZONE 39,   1.1500    
 Cooling Sizing Factor Information, Zone THERMAL ZONE 4,   1.1500    
 Cooling Sizing Factor Information, Zone THERMAL ZONE 40,   1.1500    
 Cooling Sizing Factor Information, Zone THERMAL ZONE 5,   1.1500    
 Cooling Sizing Factor Information, Zone THERMAL ZONE 6,   1.1500    
 Cooling Sizing Factor Information, Zone THERMAL ZONE 7,   1.1500    
 Cooling Sizing Factor Information, Zone THERMAL ZONE 8,   1.1500    
 Cooling Sizing Factor Information, Zone THERMAL ZONE 9,   1.1500    
! <Zone Sizing Information>, Zone Name, Load Type, Calc Des Load {W}, User Des Load {W}, Calc Des Air Flow Rate {m3/s}, User Des Air Flow Rate {m3/s}, Design Day Name, Date/Time of Peak, Temperature at Peak {C}, Humidity Ratio at Peak {kgWater/kgDryAir}, Floor Area {m2}, # Occupants, Calc Outdoor Air Flow Rate {m3/s}
 Zone Sizing Information, THERMAL ZONE 1, Cooling, 8770.06707, 10085.57713, 0.71383, 0.82090, PHILADELPHIA INTERNATIONAL AP ANN CLG .4% CONDNS DB=>MWB, 7/21 15:45:00, 33.57700, 1.48422E-002, 147.56000, 7.94161, 0.23072
 Zone Sizing Information, THERMAL ZONE 1, Heating, 8730.26742, 10912.83427, 0.29615, 0.37019, PHILADELPHIA INTERNATIONAL AP ANN HTG 99.6% CONDNS DB, 1/21 06:00:00, -10.80000, 1.48961E-003, 147.56000, 7.94161, 0.23072
 Zone Sizing Information, THERMAL ZONE 10, Cooling, 28062.35845, 32271.71222, 2.28398, 2.62657, PHILADELPHIA INTERNATIONAL AP ANN CLG .4% CONDNS DB=>MWB, 7/21 16:00:00, 33.43600, 1.48422E-002, 849.23370, 45.70538, 1.32782
 Zone Sizing Information, THERMAL ZONE 10, Heating, 9699.74572, 12124.68216, 0.32915, 1.32782, PHILADELPHIA INTERNATIONAL AP ANN HTG 99.6% CONDNS DB, 1/21 06:00:00, -10.80000, 1.48961E-003, 849.23370, 45.70538, 1.32782
 Zone Sizing Information, THERMAL ZONE 11, Cooling, 1821.87505, 2095.15631, 0.14828, 0.17052, PHILADELPHIA INTERNATIONAL AP ANN CLG .4% CONDNS DB=>MWB, 7/21 17:15:00, 32.44900, 1.48422E-002, 49.96000, 2.68882, 7.81152E-002
 Zone Sizing Information, THERMAL ZONE 11, Heating, 920.74096, 1150.92619, 3.12418E-002, 7.81152E-002, PHILADELPHIA INTERNATIONAL AP ANN HTG 99.6% CONDNS DB, 1/21 06:00:00, -10.80000, 1.48961E-003, 49.96000, 2.68882, 7.81152E-002
 Zone Sizing Information, THERMAL ZONE 12, Cooling, 2755.38609, 3168.69400, 0.22426, 0.25790, PHILADELPHIA INTERNATIONAL AP ANN CLG .4% CONDNS DB=>MWB, 7/21 17:00:00, 32.68400, 1.48422E-002, 94.17460, 5.06843, 0.14725
 Zone Sizing Information, THERMAL ZONE 12, Heating, 875.89906, 1094.87382, 2.97232E-002, 0.14725, PHILADELPHIA INTERNATIONAL AP ANN HTG 99.6% CONDNS DB, 1/21 06:00:00, -10.80000, 1.48961E-003, 94.17460, 5.06843, 0.14725
 Zone Sizing Information, THERMAL ZONE 13, Cooling, 2164.56490, 2489.24963, 0.17617, 0.20260, PHILADELPHIA INTERNATIONAL AP ANN CLG .4% CONDNS DB=>MWB, 7/21 11:45:00, 32.54300, 1.48422E-002, 49.96000, 2.68882, 7.81152E-002
 Zone Sizing Information, THERMAL ZONE 13, Heating, 1345.60940, 1682.01176, 4.56560E-002, 7.81152E-002, PHILADELPHIA INTERNATIONAL AP ANN HTG 99.6% CONDNS DB, 1/21 06:00:00, -10.80000, 1.48961E-003, 49.96000, 2.68882, 7.81152E-002
 Zone Sizing Information, THERMAL ZONE 14, Cooling, 29583.23420, 34020.71933, 2.40777, 2.76893, PHILADELPHIA INTERNATIONAL AP ANN CLG .4% CONDNS DB=>MWB, 7/21 16:30:00, 33.06000, 1.48422E-002, 849.23370, 45.70538, 1.32782
 Zone Sizing Information, THERMAL ZONE 14, Heating, 14319.30970, 17899.13712, 0.48589, 1.32782, PHILADELPHIA INTERNATIONAL AP ANN HTG 99.6% CONDNS DB, 1/21 06:00:00, -10.80000, 1.48961E-003, 849.23370, 45.70538, 1.32782
 Zone Sizing Information, THERMAL ZONE 15, Cooling, 2530.89520, 2910.52948, 0.20599, 0.23689, PHILADELPHIA INTERNATIONAL AP ANN CLG .4% CONDNS DB=>MWB, 7/21 16:00:00, 33.43600, 1.48422E-002, 46.16000, 2.48431, 7.21737E-002
 Zone Sizing Information, THERMAL ZONE 15, Heating, 1926.03156, 2407.53945, 6.53451E-002, 8.16814E-002, PHILADELPHIA INTERNATIONAL AP ANN HTG 99.6% CONDNS DB, 1/21 06:00:00, -10.80000, 1.48961E-003, 46.16000, 2.48431, 7.21737E-002
 Zone Sizing Information, THERMAL ZONE 16, Cooling, 3259.67887, 3748.63070, 0.26531, 0.30510, PHILADELPHIA INTERNATIONAL AP ANN CLG .4% CONDNS DB=>MWB, 7/21 17:45:00, 31.97900, 1.48422E-002, 57.16000, 3.07633, 8.93728E-002
 Zone Sizing Information, THERMAL ZONE 16, Heating, 2028.35111, 2535.43889, 6.88163E-002, 8.93728E-002, PHILADELPHIA INTERNATIONAL AP ANN HTG 99.6% CONDNS DB, 1/21 06:00:00, -10.80000, 1.48961E-003, 57.16000, 3.07633, 8.93728E-002
 Zone Sizing Information, THERMAL ZONE 17, Cooling, 12353.18405, 14206.16165, 1.00542, 1.15624, PHILADELPHIA INTERNATIONAL AP ANN CLG .4% CONDNS DB=>MWB, 7/21 15:45:00, 33.57700, 1.48422E-002, 346.12000, 18.62802, 0.54118
 Zone Sizing Information, THERMAL ZONE 17, Heating, 8327.81297, 10409.76621, 0.28257, 0.54118, PHILADELPHIA INTERNATIONAL AP ANN HTG 99.6% CONDNS DB, 1/21 06:00:00, -10.80000, 1.48961E-003, 346.12000, 18.62802, 0.54118
 Zone Sizing Information, THERMAL ZONE 18, Cooling, 2453.41049, 2821.42207, 0.19968, 0.22963, PHILADELPHIA INTERNATIONAL AP ANN CLG .4% CONDNS DB=>MWB, 7/21 15:45:00, 33.57700, 1.48422E-002, 46.16000, 2.48431, 7.21737E-002
 Zone Sizing Information, THERMAL ZONE 18, Heating, 1592.83054, 1991.03817, 5.40423E-002, 7.21737E-002, PHILADELPHIA INTERNATIONAL AP ANN HTG 99.6% CONDNS DB, 1/21 06:00:00, -10.80000, 1.48961E-003, 46.16000, 2.48431, 7.21737E-002
 Zone Sizing Information, THERMAL ZONE 19, Cooling, 12959.78057, 14903.74765, 1.05480, 1.21302, PHILADELPHIA INTERNATIONAL AP ANN CLG .4% CONDNS DB=>MWB, 7/21 15:45:00, 33.57700, 1.48422E-002, 346.12000, 18.62802, 0.54118
 Zone Sizing Information, THERMAL ZONE 19, Heating, 9262.52157, 11578.15197, 0.31428, 0.54118, PHILADELPHIA INTERNATIONAL AP ANN HTG 99.6% CONDNS DB, 1/21 06:00:00, -10.80000, 1.48961E-003, 346.12000, 18.62802, 0.54118
 Zone Sizing Information, THERMAL ZONE 2, Cooling, 2899.44190, 3334.35818, 0.23598, 0.27138, PHILADELPHIA INTERNATIONAL AP ANN CLG .4% CONDNS DB=>MWB, 7/21 16:45:00, 32.87200, 1.48422E-002, 94.17460, 5.06843, 0.14725
 Zone Sizing Information, THERMAL ZONE 2, Heating, 1015.61640, 1269.52050, 3.44640E-002, 0.14725, PHILADELPHIA INTERNATIONAL AP ANN HTG 99.6% CONDNS DB, 1/21 06:00:00, -10.80000, 1.48961E-003, 94.17460, 5.06843, 0.14725
 Zone Sizing Information, THERMAL ZONE 20, Cooling, 20073.40577, 23084.41663, 1.63380, 1.87887, PHILADELPHIA INTERNATIONAL AP ANN CLG .4% CONDNS DB=>MWB, 7/21 15:00:00, 34.00000, 1.48422E-002, 849.23370, 45.70538, 1.32782
 Zone Sizing Information, THERMAL ZONE 20, Heating, 4226.25264, 5282.81580, 0.14342, 1.32782, PHILADELPHIA INTERNATIONAL AP ANN HTG 99.6% CONDNS DB, 1/21 06:00:00, -10.80000, 1.48961E-003, 849.23370, 45.70538, 1.32782
 Zone Sizing Information, THERMAL ZONE 21, Cooling, 1553.93497, 1787.02521, 0.12648, 0.14545, PHILADELPHIA INTERNATIONAL AP ANN CLG .4% CONDNS DB=>MWB, 7/21 11:30:00, 32.30800, 1.48422E-002, 49.96000, 2.68882, 7.81152E-002
 Zone Sizing Information, THERMAL ZONE 21, Heating, 916.47465, 1145.59331, 3.10971E-002, 7.81152E-002, PHILADELPHIA INTERNATIONAL AP ANN HTG 99.6% CONDNS DB, 1/21 06:00:00, -10.80000, 1.48961E-003, 49.96000, 2.68882, 7.81152E-002
 Zone Sizing Information, THERMAL ZONE 22, Cooling, 2488.00826, 2861.20950, 0.20250, 0.23287, PHILADELPHIA INTERNATIONAL AP ANN CLG .4% CONDNS DB=>MWB, 7/21 17:00:00, 32.68400, 1.48422E-002, 57.16000, 3.07633, 8.93728E-002
 Zone Sizing Information, THERMAL ZONE 22, Heating, 1432.78778, 1790.98473, 4.86134E-002, 8.93728E-002, PHILADELPHIA INTERNATIONAL AP ANN HTG 99.6% CONDNS DB, 1/21 06:00:00, -10.80000, 1.48961E-003, 57.16000, 3.07633, 8.93728E-002
 Zone Sizing Information, THERMAL ZONE 23, Cooling, 8166.78826, 9391.80650, 0.66471, 0.76441, PHILADELPHIA INTERNATIONAL AP ANN CLG .4% CONDNS DB=>MWB, 7/21 15:15:00, 33.85900, 1.48422E-002, 147.56000, 7.94161, 0.23072
 Zone Sizing Information, THERMAL ZONE 23, Heating, 6926.29298, 8657.86623, 0.23498, 0.29373, PHILADELPHIA INTERNATIONAL AP ANN HTG 99.6% CONDNS DB, 1/21 06:00:00, -10.80000, 1.48961E-003, 147.56000, 7.94161, 0.23072
 Zone Sizing Information, THERMAL ZONE 24, Cooling, 2031.55574, 2336.28910, 0.16535, 0.19015, PHILADELPHIA INTERNATIONAL AP ANN CLG .4% CONDNS DB=>MWB, 7/21 16:30:00, 33.06000, 1.48422E-002, 94.17460, 5.06843, 0.14725
 Zone Sizing Information, THERMAL ZONE 24, Heating, 434.57974, 543.22467, 1.47476E-002, 0.14725, PHILADELPHIA INTERNATIONAL AP ANN HTG 99.6% CONDNS DB, 1/21 06:00:00, -10.80000, 1.48961E-003, 94.17460, 5.06843, 0.14725
 Zone Sizing Information, THERMAL ZONE 25, Cooling, 3174.40764, 3650.56879, 0.25837, 0.29713, PHILADELPHIA INTERNATIONAL AP ANN CLG .4% CONDNS DB=>MWB, 7/21 11:30:00, 32.30800, 1.48422E-002, 57.16000, 3.07633, 8.93728E-002
 Zone Sizing Information, THERMAL ZONE 25, Heating, 2264.80435, 2831.00544, 7.68343E-002, 9.60429E-002, PHILADELPHIA INTERNATIONAL AP ANN HTG WIND 99% CONDNS WS=>MCDB, 1/21 06:00:00, 1.10000, 4.09025E-003, 57.16000, 3.07633, 8.93728E-002
 Zone Sizing Information, THERMAL ZONE 26, Cooling, 3216.71711, 3699.22468, 0.26182, 0.30109, PHILADELPHIA INTERNATIONAL AP ANN CLG .4% CONDNS DB=>MWB, 7/21 11:30:00, 32.30800, 1.48422E-002, 57.16000, 3.07633, 8.93728E-002
 Zone Sizing Information, THERMAL ZONE 26, Heating, 2650.40289, 3313.00361, 8.99143E-002, 0.11239, PHILADELPHIA INTERNATIONAL AP ANN HTG 99.6% CONDNS DB, 1/21 06:00:00, -10.80000, 1.48961E-003, 57.16000, 3.07633, 8.93728E-002
 Zone Sizing Information, THERMAL ZONE 27, Cooling, 1757.59046, 2021.22903, 0.14305, 0.16451, PHILADELPHIA INTERNATIONAL AP ANN CLG .4% CONDNS DB=>MWB, 7/21 15:15:00, 33.85900, 1.48422E-002, 46.16000, 2.48431, 7.21737E-002
 Zone Sizing Information, THERMAL ZONE 27, Heating, 1025.91758, 1282.39698, 3.48105E-002, 7.21737E-002, PHILADELPHIA INTERNATIONAL AP ANN HTG 99.6% CONDNS DB, 1/21 06:00:00, -10.80000, 1.48961E-003, 46.16000, 2.48431, 7.21737E-002
 Zone Sizing Information, THERMAL ZONE 28, Cooling, 3484.04974, 4006.65720, 0.28357, 0.32611, PHILADELPHIA INTERNATIONAL AP ANN CLG .4% CONDNS DB=>MWB, 7/21 17:45:00, 31.97900, 1.48422E-002, 57.16000, 3.07633, 8.93728E-002
 Zone Sizing Information, THERMAL ZONE 28, Heating, 2661.04172, 3326.30214, 9.02752E-002, 0.11284, PHILADELPHIA INTERNATIONAL AP ANN HTG 99.6% CONDNS DB, 1/21 06:00:00, -10.80000, 1.48961E-003, 57.16000, 3.07633, 8.93728E-002
 Zone Sizing Information, THERMAL ZONE 29, Cooling, 2381.22225, 2738.40559, 0.19381, 0.22288, PHILADELPHIA INTERNATIONAL AP ANN CLG .4% CONDNS DB=>MWB, 7/21 15:45:00, 33.57700, 1.48422E-002, 46.16000, 2.48431, 7.21737E-002
 Zone Sizing Information, THERMAL ZONE 29, Heating, 1453.27913, 1816.59891, 4.93091E-002, 7.21737E-002, PHILADELPHIA INTERNATIONAL AP ANN HTG 99.6% CONDNS DB, 1/21 06:00:00, -10.80000, 1.48961E-003, 46.16000, 2.48431, 7.21737E-002
 Zone Sizing Information, THERMAL ZONE 3, Cooling, 2297.09626, 2641.66070, 0.18696, 0.21501, PHILADELPHIA INTERNATIONAL AP ANN CLG .4% CONDNS DB=>MWB, 7/21 11:45:00, 32.54300, 1.48422E-002, 49.96000, 2.68882, 7.81152E-002
 Zone Sizing Information, THERMAL ZONE 3, Heating, 1502.59075, 1878.23844, 5.09798E-002, 7.81152E-002, PHILADELPHIA INTERNATIONAL AP ANN HTG WIND 99% CONDNS WS=>MCDB, 1/21 06:00:00, 1.10000, 4.09025E-003, 49.96000, 2.68882, 7.81152E-002
 Zone Sizing Information, THERMAL ZONE 30, Cooling, 3075.62570, 3536.96955, 0.25033, 0.28788, PHILADELPHIA INTERNATIONAL AP ANN CLG .4% CONDNS DB=>MWB, 7/21 11:30:00, 32.30800, 1.48422E-002, 57.16000, 3.07633, 8.93728E-002
 Zone Sizing Information, THERMAL ZONE 30, Heating, 2019.67113, 2524.58892, 6.85218E-002, 8.93728E-002, PHILADELPHIA INTERNATIONAL AP ANN HTG 99.6% CONDNS DB, 1/21 06:00:00, -10.80000, 1.48961E-003, 57.16000, 3.07633, 8.93728E-002
 Zone Sizing Information, THERMAL ZONE 31, Cooling, 2289.45274, 2632.87065, 0.18634, 0.21429, PHILADELPHIA INTERNATIONAL AP ANN CLG .4% CONDNS DB=>MWB, 7/21 11:00:00, 31.83800, 1.48422E-002, 57.16000, 3.07633, 8.93728E-002
 Zone Sizing Information, THERMAL ZONE 31, Heating, 1427.89720, 1784.87150, 4.84475E-002, 8.93728E-002, PHILADELPHIA INTERNATIONAL AP ANN HTG 99.6% CONDNS DB, 1/21 06:00:00, -10.80000, 1.48961E-003, 57.16000, 3.07633, 8.93728E-002
 Zone Sizing Information, THERMAL ZONE 32, Cooling, 2455.28332, 2823.57581, 0.19983, 0.22981, PHILADELPHIA INTERNATIONAL AP ANN CLG .4% CONDNS DB=>MWB, 7/21 17:45:00, 31.97900, 1.48422E-002, 49.96000, 2.68882, 7.81152E-002
 Zone Sizing Information, THERMAL ZONE 32, Heating, 1352.97487, 1691.21859, 4.59059E-002, 7.81152E-002, PHILADELPHIA INTERNATIONAL AP ANN HTG 99.6% CONDNS DB, 1/21 06:00:00, -10.80000, 1.48961E-003, 49.96000, 2.68882, 7.81152E-002
 Zone Sizing Information, THERMAL ZONE 33, Cooling, 3350.53606, 3853.11646, 0.27270, 0.31361, PHILADELPHIA INTERNATIONAL AP ANN CLG .4% CONDNS DB=>MWB, 7/21 17:45:00, 31.97900, 1.48422E-002, 57.16000, 3.07633, 8.93728E-002
 Zone Sizing Information, THERMAL ZONE 33, Heating, 2267.81656, 2834.77070, 7.69365E-002, 9.61706E-002, PHILADELPHIA INTERNATIONAL AP ANN HTG WIND 99% CONDNS WS=>MCDB, 1/21 06:00:00, 1.10000, 4.09025E-003, 57.16000, 3.07633, 8.93728E-002
 Zone Sizing Information, THERMAL ZONE 34, Cooling, 2662.65595, 3062.05434, 0.21671, 0.24922, PHILADELPHIA INTERNATIONAL AP ANN CLG .4% CONDNS DB=>MWB, 7/21 17:45:00, 31.97900, 1.48422E-002, 49.96000, 2.68882, 7.81152E-002
 Zone Sizing Information, THERMAL ZONE 34, Heating, 1867.32987, 2334.16233, 6.33537E-002, 7.91921E-002, PHILADELPHIA INTERNATIONAL AP ANN HTG 99.6% CONDNS DB, 1/21 06:00:00, -10.80000, 1.48961E-003, 49.96000, 2.68882, 7.81152E-002
 Zone Sizing Information, THERMAL ZONE 35, Cooling, 26504.35824, 30480.01198, 2.15717, 2.48075, PHILADELPHIA INTERNATIONAL AP ANN CLG .4% CONDNS DB=>MWB, 7/21 16:00:00, 33.43600, 1.48422E-002, 849.23370, 45.70538, 1.32782
 Zone Sizing Information, THERMAL ZONE 35, Heating, 8190.49987, 10238.12484, 0.27794, 1.32782, PHILADELPHIA INTERNATIONAL AP ANN HTG 99.6% CONDNS DB, 1/21 06:00:00, -10.80000, 1.48961E-003, 849.23370, 45.70538, 1.32782
 Zone Sizing Information, THERMAL ZONE 36, Cooling, 8683.49168, 9986.01544, 0.70676, 0.81278, PHILADELPHIA INTERNATIONAL AP ANN CLG .4% CONDNS DB=>MWB, 7/21 15:30:00, 33.71800, 1.48422E-002, 346.12000, 18.62802, 0.54118
 Zone Sizing Information, THERMAL ZONE 36, Heating, 5566.95929, 6958.69911, 0.18890, 0.54118, PHILADELPHIA INTERNATIONAL AP ANN HTG 99.6% CONDNS DB, 1/21 06:00:00, -10.80000, 1.48961E-003, 346.12000, 18.62802, 0.54118
 Zone Sizing Information, THERMAL ZONE 37, Cooling, 6459.16904, 7428.04440, 0.52572, 0.60458, PHILADELPHIA INTERNATIONAL AP ANN CLG .4% CONDNS DB=>MWB, 7/21 15:15:00, 33.85900, 1.48422E-002, 152.40000, 8.20210, 0.23829
 Zone Sizing Information, THERMAL ZONE 37, Heating, 5303.31114, 6629.13893, 0.17993, 0.23829, PHILADELPHIA INTERNATIONAL AP ANN HTG 99.6% CONDNS DB, 1/21 06:00:00, -10.80000, 1.48961E-003, 152.40000, 8.20210, 0.23829
 Zone Sizing Information, THERMAL ZONE 38, Cooling, 13627.12284, 15671.19126, 1.10913, 1.27550, PHILADELPHIA INTERNATIONAL AP ANN CLG .4% CONDNS DB=>MWB, 7/21 16:30:00, 33.06000, 1.48422E-002, 346.12000, 18.62802, 0.54118
 Zone Sizing Information, THERMAL ZONE 38, Heating, 11875.82316, 14844.77896, 0.40293, 0.54118, PHILADELPHIA INTERNATIONAL AP ANN HTG 99.6% CONDNS DB, 1/21 06:00:00, -10.80000, 1.48961E-003, 346.12000, 18.62802, 0.54118
[...]
 Warmup Convergence Information,THERMAL ZONE 28,SizingPeriod: PHILADELPHIA INTERNATIONAL AP ANN HUM_N 99% CONDNS DP=>MCDB,6.1927274693E-005,1.3852782202E-004,Pass,Pass,8.9292005735E-003,6.2369287355E-002,Pass,Pass
 Warmup Convergence Information,THERMAL ZONE 29,SizingPeriod: PHILADELPHIA INTERNATIONAL AP ANN HUM_N 99% CONDNS DP=>MCDB,1.3989702604E-003,1.3553427444E-003,Pass,Pass,9.1331317767E-003,4.8949670250E-002,Pass,Pass
 Warmup Convergence Information,THERMAL ZONE 3,SizingPeriod: PHILADELPHIA INTERNATIONAL AP ANN HUM_N 99% CONDNS DP=>MCDB,1.1752282827E-003,1.1368002539E-003,Pass,Pass,1.0992941780E-002,6.4460205347E-002,Pass,Pass
 Warmup Convergence Information,THERMAL ZONE 30,SizingPeriod: PHILADELPHIA INTERNATIONAL AP ANN HUM_N 99% CONDNS DP=>MCDB,1.3255659052E-003,1.2938298238E-003,Pass,Pass,1.0792308388E-002,6.3272284937E-002,Pass,Pass
 Warmup Convergence Information,THERMAL ZONE 31,SizingPeriod: PHILADELPHIA INTERNATIONAL AP ANN HUM_N 99% CONDNS DP=>MCDB,1.1106850805E-003,1.0774335205E-003,Pass,Pass,1.2058652691E-002,7.0232617658E-002,Pass,Pass
 Warmup Convergence Information,THERMAL ZONE 32,SizingPeriod: PHILADELPHIA INTERNATIONAL AP ANN HUM_N 99% CONDNS DP=>MCDB,1.1234578900E-003,1.6111862048E-003,Pass,Pass,9.7115123315E-003,6.0569288574E-002,Pass,Pass
 Warmup Convergence Information,THERMAL ZONE 33,SizingPeriod: PHILADELPHIA INTERNATIONAL AP ANN HUM_N 99% CONDNS DP=>MCDB,2.2598438773E-003,1.7777401429E-003,Pass,Pass,1.3145355992E-002,6.6776889927E-002,Pass,Pass
 Warmup Convergence Information,THERMAL ZONE 34,SizingPeriod: PHILADELPHIA INTERNATIONAL AP ANN HUM_N 99% CONDNS DP=>MCDB,1.9024626943E-003,1.7950267826E-003,Pass,Pass,1.0911035243E-002,5.7124257157E-002,Pass,Pass
 Warmup Convergence Information,THERMAL ZONE 35,SizingPeriod: PHILADELPHIA INTERNATIONAL AP ANN HUM_N 99% CONDNS DP=>MCDB,6.6016908877E-005,1.1041417958E-004,Pass,Pass,7.2964577729E-003,4.9712797750E-002,Pass,Pass
 Warmup Convergence Information,THERMAL ZONE 36,SizingPeriod: PHILADELPHIA INTERNATIONAL AP ANN HUM_N 99% CONDNS DP=>MCDB,6.1351892824E-004,7.6215941953E-004,Pass,Pass,9.5611642914E-003,5.7911358559E-002,Pass,Pass
 Warmup Convergence Information,THERMAL ZONE 37,SizingPeriod: PHILADELPHIA INTERNATIONAL AP ANN HUM_N 99% CONDNS DP=>MCDB,2.4617297770E-003,1.4510494842E-003,Pass,Pass,1.0086619860E-002,4.9260336435E-002,Pass,Pass
 Warmup Convergence Information,THERMAL ZONE 38,SizingPeriod: PHILADELPHIA INTERNATIONAL AP ANN HUM_N 99% CONDNS DP=>MCDB,1.6824788367E-003,1.8597735693E-003,Pass,Pass,8.5724268818E-003,5.0334723679E-002,Pass,Pass
 Warmup Convergence Information,THERMAL ZONE 39,SizingPeriod: PHILADELPHIA INTERNATIONAL AP ANN HUM_N 99% CONDNS DP=>MCDB,1.3596181323E-003,9.6727318868E-004,Pass,Pass,8.4545016480E-003,3.3239547178E-002,Pass,Pass
 Warmup Convergence Information,THERMAL ZONE 4,SizingPeriod: PHILADELPHIA INTERNATIONAL AP ANN HUM_N 99% CONDNS DP=>MCDB,1.7750889564E-003,1.6512907517E-003,Pass,Pass,9.8400104807E-003,5.8201257504E-002,Pass,Pass
 Warmup Convergence Information,THERMAL ZONE 40,SizingPeriod: PHILADELPHIA INTERNATIONAL AP ANN HUM_N 99% CONDNS DP=>MCDB,3.4237079395E-003,1.0487976077E-003,Pass,Pass,1.0985727043E-002,4.7960127095E-002,Pass,Pass
 Warmup Convergence Information,THERMAL ZONE 5,SizingPeriod: PHILADELPHIA INTERNATIONAL AP ANN HUM_N 99% CONDNS DP=>MCDB,3.2620860856E-004,6.9921104236E-004,Pass,Pass,9.5313922785E-003,6.4624251317E-002,Pass,Pass
 Warmup Convergence Information,THERMAL ZONE 6,SizingPeriod: PHILADELPHIA INTERNATIONAL AP ANN HUM_N 99% CONDNS DP=>MCDB,3.0883925392E-003,1.6906039369E-003,Pass,Pass,1.0130497440E-002,5.4159528963E-002,Pass,Pass
 Warmup Convergence Information,THERMAL ZONE 7,SizingPeriod: PHILADELPHIA INTERNATIONAL AP ANN HUM_N 99% CONDNS DP=>MCDB,2.0730597688E-003,1.9947138140E-003,Pass,Pass,9.5817524756E-003,5.3277765565E-002,Pass,Pass
 Warmup Convergence Information,THERMAL ZONE 8,SizingPeriod: PHILADELPHIA INTERNATIONAL AP ANN HUM_N 99% CONDNS DP=>MCDB,1.5348297681E-003,1.6083624698E-003,Pass,Pass,9.2225577363E-003,5.0102930898E-002,Pass,Pass
 Warmup Convergence Information,THERMAL ZONE 9,SizingPeriod: PHILADELPHIA INTERNATIONAL AP ANN HUM_N 99% CONDNS DP=>MCDB,1.9683047264E-003,2.5002170164E-003,Pass,Pass,8.6740152995E-003,5.2980493588E-002,Pass,Pass
Environment,PHILADELPHIA INTERNATIONAL AP ANN HUM_N 99.6% CONDNS DP=>MCDB,SizingPeriod:DesignDay,01/21,01/21,WinterDesignDay,1,N/A,N/A,N/A,N/A,N/A,N/A
Environment:Daylight Saving,No,SizingPeriod:DesignDay
Environment:Design Day Data,-8.70,0.00,DefaultMultipliers,101301,290,5.2,0.00,No ,No 
Environment:Design_Day_Misc, 21,1229.0,0.1415,5.7310E-002,1.0,-11.15,-20.1,ASHRAEClearSky
Environment:WarmupDays,  6
 Warmup Convergence Information,THERMAL ZONE 1,SizingPeriod: PHILADELPHIA INTERNATIONAL AP ANN HUM_N 99.6% CONDNS DP=>MCDB,1.7285126581E-003,1.9311863846E-003,Pass,Pass,9.3096707542E-003,5.4693810386E-002,Pass,Pass
 Warmup Convergence Information,THERMAL ZONE 10,SizingPeriod: PHILADELPHIA INTERNATIONAL AP ANN HUM_N 99.6% CONDNS DP=>MCDB,1.7740018947E-003,1.1179091562E-003,Pass,Pass,1.2501025458E-002,4.8008394891E-002,Pass,Pass
 Warmup Convergence Information,THERMAL ZONE 11,SizingPeriod: PHILADELPHIA INTERNATIONAL AP ANN HUM_N 99.6% CONDNS DP=>MCDB,2.2297775740E-003,2.3746427978E-004,Pass,Pass,1.6743964926E-002,6.9570979475E-002,Pass,Pass
 Warmup Convergence Information,THERMAL ZONE 12,SizingPeriod: PHILADELPHIA INTERNATIONAL AP ANN HUM_N 99.6% CONDNS DP=>MCDB,1.6334592706E-003,5.7976872423E-004,Pass,Pass,1.3377361011E-002,4.6057182796E-002,Pass,Pass
 Warmup Convergence Information,THERMAL ZONE 13,SizingPeriod: PHILADELPHIA INTERNATIONAL AP ANN HUM_N 99.6% CONDNS DP=>MCDB,2.2961873119E-003,3.0508771935E-004,Pass,Pass,1.3355391953E-002,6.0426393930E-002,Pass,Pass
 Warmup Convergence Information,THERMAL ZONE 14,SizingPeriod: PHILADELPHIA INTERNATIONAL AP ANN HUM_N 99.6% CONDNS DP=>MCDB,1.3585483550E-003,1.2561382697E-003,Pass,Pass,7.5099546849E-003,3.8658942181E-002,Pass,Pass
 Warmup Convergence Information,THERMAL ZONE 15,SizingPeriod: PHILADELPHIA INTERNATIONAL AP ANN HUM_N 99.6% CONDNS DP=>MCDB,2.5269816638E-003,1.1029942689E-003,Pass,Pass,1.0000168555E-002,5.0491475690E-002,Pass,Pass
 Warmup Convergence Information,THERMAL ZONE 16,SizingPeriod: PHILADELPHIA INTERNATIONAL AP ANN HUM_N 99.6% CONDNS DP=>MCDB,1.8087812243E-003,1.6515293362E-003,Pass,Pass,1.2210583240E-002,6.3277105980E-002,Pass,Pass
 Warmup Convergence Information,THERMAL ZONE 17,SizingPeriod: PHILADELPHIA INTERNATIONAL AP ANN HUM_N 99.6% CONDNS DP=>MCDB,1.4719938433E-003,1.0167680392E-003,Pass,Pass,9.7665734641E-003,4.8750552303E-002,Pass,Pass
 Warmup Convergence Information,THERMAL ZONE 18,SizingPeriod: PHILADELPHIA INTERNATIONAL AP ANN HUM_N 99.6% CONDNS DP=>MCDB,1.1960448698E-003,1.1602592681E-003,Pass,Pass,9.2014625182E-003,5.3793214479E-002,Pass,Pass
 Warmup Convergence Information,THERMAL ZONE 19,SizingPeriod: PHILADELPHIA INTERNATIONAL AP ANN HUM_N 99.6% CONDNS DP=>MCDB,2.2015766826E-003,1.2057826386E-003,Pass,Pass,1.0342310148E-002,5.1990588644E-002,Pass,Pass
 Warmup Convergence Information,THERMAL ZONE 2,SizingPeriod: PHILADELPHIA INTERNATIONAL AP ANN HUM_N 99.6% CONDNS DP=>MCDB,8.7119867490E-004,1.0569115476E-003,Pass,Pass,1.0106601926E-002,4.6245577669E-002,Pass,Pass
 Warmup Convergence Information,THERMAL ZONE 20,SizingPeriod: PHILADELPHIA INTERNATIONAL AP ANN HUM_N 99.6% CONDNS DP=>MCDB,7.7974461469E-004,7.1898300859E-004,Pass,Pass,1.8074911920E-002,8.7680435617E-002,Pass,Pass
 Warmup Convergence Information,THERMAL ZONE 21,SizingPeriod: PHILADELPHIA INTERNATIONAL AP ANN HUM_N 99.6% CONDNS DP=>MCDB,8.5979865696E-004,9.6346680472E-004,Pass,Pass,1.1417699758E-002,7.0615173988E-002,Pass,Pass
 Warmup Convergence Information,THERMAL ZONE 22,SizingPeriod: PHILADELPHIA INTERNATIONAL AP ANN HUM_N 99.6% CONDNS DP=>MCDB,1.7777082601E-003,4.1069389080E-004,Pass,Pass,1.3665739541E-002,6.9522835561E-002,Pass,Pass
 Warmup Convergence Information,THERMAL ZONE 23,SizingPeriod: PHILADELPHIA INTERNATIONAL AP ANN HUM_N 99.6% CONDNS DP=>MCDB,1.9767069091E-003,1.7246619195E-003,Pass,Pass,8.8467205895E-003,4.9086676839E-002,Pass,Pass
 Warmup Convergence Information,THERMAL ZONE 24,SizingPeriod: PHILADELPHIA INTERNATIONAL AP ANN HUM_N 99.6% CONDNS DP=>MCDB,9.7066467351E-004,6.4377737419E-004,Pass,Pass,1.8899440864E-002,8.9816213504E-002,Pass,Pass
 Warmup Convergence Information,THERMAL ZONE 25,SizingPeriod: PHILADELPHIA INTERNATIONAL AP ANN HUM_N 99.6% CONDNS DP=>MCDB,1.7932418183E-003,2.2596738104E-003,Pass,Pass,1.1467197317E-002,6.7554810557E-002,Pass,Pass
 Warmup Convergence Information,THERMAL ZONE 26,SizingPeriod: PHILADELPHIA INTERNATIONAL AP ANN HUM_N 99.6% CONDNS DP=>MCDB,1.4613492614E-003,1.3947905678E-003,Pass,Pass,1.1001060092E-002,6.2875871804E-002,Pass,Pass
 Warmup Convergence Information,THERMAL ZONE 27,SizingPeriod: PHILADELPHIA INTERNATIONAL AP ANN HUM_N 99.6% CONDNS DP=>MCDB,1.2248524329E-003,1.1542751215E-003,Pass,Pass,1.0957474196E-002,5.3569827944E-002,Pass,Pass
 Warmup Convergence Information,THERMAL ZONE 28,SizingPeriod: PHILADELPHIA INTERNATIONAL AP ANN HUM_N 99.6% CONDNS DP=>MCDB,3.5102072273E-003,1.8263826347E-003,Pass,Pass,1.2039561007E-002,6.2916887905E-002,Pass,Pass
 Warmup Convergence Information,THERMAL ZONE 29,SizingPeriod: PHILADELPHIA INTERNATIONAL AP ANN HUM_N 99.6% CONDNS DP=>MCDB,7.0796683260E-004,1.3308201588E-003,Pass,Pass,7.8104371462E-003,4.9728065590E-002,Pass,Pass
 Warmup Convergence Information,THERMAL ZONE 3,SizingPeriod: PHILADELPHIA INTERNATIONAL AP ANN HUM_N 99.6% CONDNS DP=>MCDB,8.8994590305E-004,1.2629963384E-003,Pass,Pass,9.9784078818E-003,6.5037232484E-002,Pass,Pass
 Warmup Convergence Information,THERMAL ZONE 30,SizingPeriod: PHILADELPHIA INTERNATIONAL AP ANN HUM_N 99.6% CONDNS DP=>MCDB,1.4250932332E-003,1.8043090994E-003,Pass,Pass,1.0619890149E-002,6.3299881276E-002,Pass,Pass
 Warmup Convergence Information,THERMAL ZONE 31,SizingPeriod: PHILADELPHIA INTERNATIONAL AP ANN HUM_N 99.6% CONDNS DP=>MCDB,1.6043414572E-003,5.9050283095E-004,Pass,Pass,1.2675741729E-002,7.0184171553E-002,Pass,Pass
 Warmup Convergence Information,THERMAL ZONE 32,SizingPeriod: PHILADELPHIA INTERNATIONAL AP ANN HUM_N 99.6% CONDNS DP=>MCDB,1.3014539623E-003,1.3146126891E-003,Pass,Pass,1.0431850993E-002,5.9880583115E-002,Pass,Pass
 Warmup Convergence Information,THERMAL ZONE 33,SizingPeriod: PHILADELPHIA INTERNATIONAL AP ANN HUM_N 99.6% CONDNS DP=>MCDB,1.2022574130E-003,1.4921891632E-003,Pass,Pass,1.1636338108E-002,6.7815328906E-002,Pass,Pass
 Warmup Convergence Information,THERMAL ZONE 34,SizingPeriod: PHILADELPHIA INTERNATIONAL AP ANN HUM_N 99.6% CONDNS DP=>MCDB,2.5730473707E-003,8.9699712961E-004,Pass,Pass,1.1589516702E-002,5.7856767355E-002,Pass,Pass
 Warmup Convergence Information,THERMAL ZONE 35,SizingPeriod: PHILADELPHIA INTERNATIONAL AP ANN HUM_N 99.6% CONDNS DP=>MCDB,7.4820122979E-004,8.8405629106E-004,Pass,Pass,1.0061695849E-002,4.9006080925E-002,Pass,Pass
 Warmup Convergence Information,THERMAL ZONE 36,SizingPeriod: PHILADELPHIA INTERNATIONAL AP ANN HUM_N 99.6% CONDNS DP=>MCDB,6.2642104968E-004,6.0615344219E-004,Pass,Pass,9.8142126475E-003,5.7364257071E-002,Pass,Pass
 Warmup Convergence Information,THERMAL ZONE 37,SizingPeriod: PHILADELPHIA INTERNATIONAL AP ANN HUM_N 99.6% CONDNS DP=>MCDB,1.8828793364E-003,1.7923666860E-003,Pass,Pass,8.6733486659E-003,4.9621213614E-002,Pass,Pass
 Warmup Convergence Information,THERMAL ZONE 38,SizingPeriod: PHILADELPHIA INTERNATIONAL AP ANN HUM_N 99.6% CONDNS DP=>MCDB,7.0586189021E-004,1.0609061133E-003,Pass,Pass,7.7721180783E-003,5.0046244705E-002,Pass,Pass
 Warmup Convergence Information,THERMAL ZONE 39,SizingPeriod: PHILADELPHIA INTERNATIONAL AP ANN HUM_N 99.6% CONDNS DP=>MCDB,1.3116604179E-003,1.2440560730E-003,Pass,Pass,8.1891968626E-003,3.3714470827E-002,Pass,Pass
 Warmup Convergence Information,THERMAL ZONE 4,SizingPeriod: PHILADELPHIA INTERNATIONAL AP ANN HUM_N 99.6% CONDNS DP=>MCDB,2.7990638384E-003,1.5994814025E-003,Pass,Pass,1.0597449591E-002,5.7791740773E-002,Pass,Pass
 Warmup Convergence Information,THERMAL ZONE 40,SizingPeriod: PHILADELPHIA INTERNATIONAL AP ANN HUM_N 99.6% CONDNS DP=>MCDB,4.9163513956E-004,1.3013784100E-003,Pass,Pass,7.1824887934E-003,4.8794356992E-002,Pass,Pass
 Warmup Convergence Information,THERMAL ZONE 5,SizingPeriod: PHILADELPHIA INTERNATIONAL AP ANN HUM_N 99.6% CONDNS DP=>MCDB,1.7158387447E-003,1.5429823196E-003,Pass,Pass,1.2682134508E-002,6.4650599738E-002,Pass,Pass
 Warmup Convergence Information,THERMAL ZONE 6,SizingPeriod: PHILADELPHIA INTERNATIONAL AP ANN HUM_N 99.6% CONDNS DP=>MCDB,3.0926666515E-003,9.8760383564E-004,Pass,Pass,1.0462829290E-002,5.4909441487E-002,Pass,Pass
 Warmup Convergence Information,THERMAL ZONE 7,SizingPeriod: PHILADELPHIA INTERNATIONAL AP ANN HUM_N 99.6% CONDNS DP=>MCDB,3.1577669668E-005,3.9148201650E-005,Pass,Pass,7.7776961812E-003,5.4086243905E-002,Pass,Pass
 Warmup Convergence Information,THERMAL ZONE 8,SizingPeriod: PHILADELPHIA INTERNATIONAL AP ANN HUM_N 99.6% CONDNS DP=>MCDB,1.5306769246E-003,1.4667495823E-003,Pass,Pass,8.6744303601E-003,4.9588398526E-002,Pass,Pass
 Warmup Convergence Information,THERMAL ZONE 9,SizingPeriod: PHILADELPHIA INTERNATIONAL AP ANN HUM_N 99.6% CONDNS DP=>MCDB,1.6490055267E-003,1.9735094912E-003,Pass,Pass,8.7659298925E-003,5.3461715525E-002,Pass,Pass
Environment,RUN PERIOD 1,WeatherFileRunPeriod,01/01,12/31,Thursday,365,Use RunPeriod Specified Day,No ,No ,No ,Yes,Yes
Environment:Daylight Saving,No,RunPeriod Object
Environment:WarmupDays,  7
 Warmup Convergence Information,THERMAL ZONE 1,RunPeriod: RUN PERIOD 1,0.1319176017,0.1436780180,Pass,Pass,0.2283933581,1.3591871459,Pass,Pass
 Warmup Convergence Information,THERMAL ZONE 10,RunPeriod: RUN PERIOD 1,0.1410872670,0.1893855233,Pass,Pass,2.3217836449E-002,2.6313541006E-002,Pass,Pass
 Warmup Convergence Information,THERMAL ZONE 11,RunPeriod: RUN PERIOD 1,0.1450485517,0.1618602958,Pass,Pass,3.5770083092E-002,5.3478105656E-002,Pass,Pass
 Warmup Convergence Information,THERMAL ZONE 12,RunPeriod: RUN PERIOD 1,0.1244469322,0.1673791871,Pass,Pass,2.5599490185E-002,4.8898695477E-002,Pass,Pass
 Warmup Convergence Information,THERMAL ZONE 13,RunPeriod: RUN PERIOD 1,0.1368451179,0.1653393580,Pass,Pass,2.8594354358E-002,4.7381813114E-002,Pass,Pass
 Warmup Convergence Information,THERMAL ZONE 14,RunPeriod: RUN PERIOD 1,0.1537782506,0.1882354146,Pass,Pass,2.8743537383E-002,4.5750785752E-002,Pass,Pass
 Warmup Convergence Information,THERMAL ZONE 15,RunPeriod: RUN PERIOD 1,0.1560225954,0.1638554931,Pass,Pass,3.8642946445E-002,5.8040405583E-002,Pass,Pass
 Warmup Convergence Information,THERMAL ZONE 16,RunPeriod: RUN PERIOD 1,0.1108243657,0.1496982663,Pass,Pass,4.2916571953E-002,7.4206795417E-002,Pass,Pass
 Warmup Convergence Information,THERMAL ZONE 17,RunPeriod: RUN PERIOD 1,0.1267268490,0.1601594980,Pass,Pass,2.7960268281E-002,4.8557121317E-002,Pass,Pass
 Warmup Convergence Information,THERMAL ZONE 18,RunPeriod: RUN PERIOD 1,0.1687677243,0.1648135956,Pass,Pass,3.1931079973E-002,4.3533863536E-002,Pass,Pass
 Warmup Convergence Information,THERMAL ZONE 19,RunPeriod: RUN PERIOD 1,0.1252704235,0.1598649880,Pass,Pass,2.8177021867E-002,4.8612666641E-002,Pass,Pass
 Warmup Convergence Information,THERMAL ZONE 2,RunPeriod: RUN PERIOD 1,0.1223525283,0.1672697333,Pass,Pass,2.5756471053E-002,4.8988473579E-002,Pass,Pass
 Warmup Convergence Information,THERMAL ZONE 20,RunPeriod: RUN PERIOD 1,0.1558709576,0.2111333117,Pass,Pass,3.5057099067E-002,4.3388572199E-002,Pass,Pass
 Warmup Convergence Information,THERMAL ZONE 21,RunPeriod: RUN PERIOD 1,0.1553900464,0.1826008930,Pass,Pass,3.2022414879E-002,5.0672389213E-002,Pass,Pass
 Warmup Convergence Information,THERMAL ZONE 22,RunPeriod: RUN PERIOD 1,0.1401613276,0.1727048348,Pass,Pass,4.6681076150E-002,6.6649181850E-002,Pass,Pass
 Warmup Convergence Information,THERMAL ZONE 23,RunPeriod: RUN PERIOD 1,0.1461354326,0.1593032773,Pass,Pass,8.4430478221E-002,0.1926043087,Pass,Pass
 Warmup Convergence Information,THERMAL ZONE 24,RunPeriod: RUN PERIOD 1,0.1419257579,0.1696701673,Pass,Pass,2.8440001595E-002,5.0177798974E-002,Pass,Pass
 Warmup Convergence Information,THERMAL ZONE 25,RunPeriod: RUN PERIOD 1,0.1290336437,0.1752661447,Pass,Pass,3.8362075387E-002,6.2195470759E-002,Pass,Pass
 Warmup Convergence Information,THERMAL ZONE 26,RunPeriod: RUN PERIOD 1,0.1182973529,0.1659741022,Pass,Pass,5.9339884694E-002,0.1105570878,Pass,Pass
 Warmup Convergence Information,THERMAL ZONE 27,RunPeriod: RUN PERIOD 1,0.1736655329,0.1872473641,Pass,Pass,4.5972651825E-002,5.1305842599E-002,Pass,Pass
 Warmup Convergence Information,THERMAL ZONE 28,RunPeriod: RUN PERIOD 1,9.8391988990E-002,0.1298376785,Pass,Pass,0.1534229548,0.7216473402,Pass,Pass
 Warmup Convergence Information,THERMAL ZONE 29,RunPeriod: RUN PERIOD 1,0.1674469271,0.1631844679,Pass,Pass,3.3066677286E-002,4.3457470553E-002,Pass,Pass
 Warmup Convergence Information,THERMAL ZONE 3,RunPeriod: RUN PERIOD 1,0.1350728217,0.1648789314,Pass,Pass,2.8912059815E-002,4.7164768099E-002,Pass,Pass
 Warmup Convergence Information,THERMAL ZONE 30,RunPeriod: RUN PERIOD 1,0.1331145704,0.1761997741,Pass,Pass,3.5275385101E-002,6.0331578925E-002,Pass,Pass
 Warmup Convergence Information,THERMAL ZONE 31,RunPeriod: RUN PERIOD 1,0.1517504774,0.1988192563,Pass,Pass,4.3781554637E-002,6.5641502754E-002,Pass,Pass
 Warmup Convergence Information,THERMAL ZONE 32,RunPeriod: RUN PERIOD 1,0.1223006227,0.1521799118,Pass,Pass,3.0542751209E-002,4.8127321247E-002,Pass,Pass
 Warmup Convergence Information,THERMAL ZONE 33,RunPeriod: RUN PERIOD 1,0.1073511258,0.1469765467,Pass,Pass,5.0052955423E-002,8.7831884875E-002,Pass,Pass
 Warmup Convergence Information,THERMAL ZONE 34,RunPeriod: RUN PERIOD 1,0.1040951818,0.1397939812,Pass,Pass,4.3109508799E-002,7.7234942983E-002,Pass,Pass
 Warmup Convergence Information,THERMAL ZONE 35,RunPeriod: RUN PERIOD 1,0.1406409038,0.1890041432,Pass,Pass,2.2696995329E-002,2.5517964013E-002,Pass,Pass
 Warmup Convergence Information,THERMAL ZONE 36,RunPeriod: RUN PERIOD 1,0.1436409419,0.1682243031,Pass,Pass,3.0782640087E-002,5.0722760877E-002,Pass,Pass
 Warmup Convergence Information,THERMAL ZONE 37,RunPeriod: RUN PERIOD 1,0.1669811819,0.1802927508,Pass,Pass,0.3410895493,1.4413014048,Pass,Pass
 Warmup Convergence Information,THERMAL ZONE 38,RunPeriod: RUN PERIOD 1,0.1154989329,0.1545116183,Pass,Pass,3.6198578432E-002,6.6625525654E-002,Pass,Pass
 Warmup Convergence Information,THERMAL ZONE 39,RunPeriod: RUN PERIOD 1,0.1211132721,0.1578685344,Pass,Pass,2.7153789849E-002,4.8980778147E-002,Pass,Pass
 Warmup Convergence Information,THERMAL ZONE 4,RunPeriod: RUN PERIOD 1,0.1217766901,0.1625125293,Pass,Pass,3.5810161793E-002,6.3673874821E-002,Pass,Pass
 Warmup Convergence Information,THERMAL ZONE 40,RunPeriod: RUN PERIOD 1,0.1366659454,0.1511623954,Pass,Pass,0.1956182412,0.9840686779,Pass,Pass
 Warmup Convergence Information,THERMAL ZONE 5,RunPeriod: RUN PERIOD 1,0.1178653832,0.1527049575,Pass,Pass,3.2354734925E-002,5.1298556753E-002,Pass,Pass
 Warmup Convergence Information,THERMAL ZONE 6,RunPeriod: RUN PERIOD 1,0.1273060572,0.1418456943,Pass,Pass,0.1199584711,0.2610674669,Pass,Pass
 Warmup Convergence Information,THERMAL ZONE 7,RunPeriod: RUN PERIOD 1,0.1411545030,0.1564334335,Pass,Pass,0.2311062470,1.3609419091,Pass,Pass
 Warmup Convergence Information,THERMAL ZONE 8,RunPeriod: RUN PERIOD 1,0.1671463176,0.1969094202,Pass,Pass,0.1871479036,0.5666397487,Pass,Pass
 Warmup Convergence Information,THERMAL ZONE 9,RunPeriod: RUN PERIOD 1,0.1345299447,0.1493987502,Pass,Pass,0.2760164428,1.2488911312,Pass,Pass
! <Program Control Information:Threads/Parallel Sims>, Threading Supported,Maximum Number of Threads, Env Set Threads (OMP_NUM_THREADS), EP Env Set Threads (EP_OMP_NUM_THREADS), IDF Set Threads, Number of Threads Used (Interior Radiant Exchange), Number Nominal Surfaces, Number Parallel Sims
Program Control:Threads/Parallel Sims, Yes,1, Not Set, Not Set, 1, 1, 288, N/A
End of Data
